data_str_m1_o12004_ITG
_audit_creation_date              2015-10-01T06:30:39-0700
_symmetry_space_group_name_H-M    P1
_symmetry_Int_Tables_number       1
_space_group_crystal_system       triclinic
loop_
_symmetry_equiv_pos_as_xyz
  x,y,z
_cell_length_a                    26.5200558
_cell_length_b                    26.2699198
_cell_length_c                    43.6628476
_cell_angle_alpha                 92.2908045
_cell_angle_beta                  89.8292032
_cell_angle_gamma                 91.3675439
_cell_volume                      30385.9913836

loop_
_atom_site_label
_atom_site_type_symbol
_atom_site_description
_atom_site_fract_x
_atom_site_fract_y
_atom_site_fract_z
_atom_type_partial_charge
Zn1   Zn    Zn3+2 0.094776 0.718598 0.657327 0.000000
Zn2   Zn    Zn3+2 0.423471 0.725838 0.719928 0.000000
Zn3   Zn    Zn3+2 0.217025 0.341360 0.777640 0.000000
Zn4   Zn    Zn3+2 0.138971 0.539249 0.854132 0.000000
Zn5   Zn    Zn3+2 0.223498 0.736899 0.788394 0.000000
Zn6   Zn    Zn3+2 0.420828 0.096315 0.713810 0.000000
Zn7   Zn    Zn3+2 0.169880 0.845517 0.236913 0.000000
Zn8   Zn    Zn3+2 0.180761 0.597366 0.238413 0.000000
Zn9   Zn    Zn3+2 0.590672 0.834382 0.481875 0.000000
Zn10  Zn    Zn3+2 0.311926 0.835220 0.359261 0.000000
Zn11  Zn    Zn3+2 0.579169 0.916102 0.730988 0.000000
Zn12  Zn    Zn3+2 0.314092 0.903154 0.124138 0.000000
Zn13  Zn    Zn3+2 0.313652 0.530446 0.113301 0.000000
Zn14  Zn    Zn3+2 0.713306 0.837738 0.609714 0.000000
Zn15  Zn    Zn3+2 0.720032 0.586777 0.608918 0.000000
Zn16  Zn    Zn3+2 0.572630 0.531766 0.727742 0.000000
Zn17  Zn    Zn3+2 0.299317 0.315120 0.576890 0.000000
Zn18  Zn    Zn3+2 0.573769 0.585321 0.486239 0.000000
Zn19  Zn    Zn3+2 0.306091 0.589622 0.367286 0.000000
Zn20  Zn    Zn3+2 0.298671 0.083200 0.588187 0.000000
Zn21  Zn    Zn3+2 0.799315 0.337475 0.187721 0.000000
Zn22  Zn    Zn3+2 0.089447 0.327016 0.650569 0.000000
Zn23  Zn    Zn3+2 0.805988 0.713738 0.203063 0.000000
Zn24  Zn    Zn3+2 0.468057 0.712475 0.138680 0.000000
Zn25  Zn    Zn3+2 0.599773 0.706159 0.265268 0.000000
Zn26  Zn    Zn3+2 0.365026 0.895460 0.497507 0.000000
Zn27  Zn    Zn3+2 0.672641 0.706768 0.074553 0.000000
Zn28  Zn    Zn3+2 0.534842 0.522992 0.350821 0.000000
Zn29  Zn    Zn3+2 0.544609 0.900193 0.347623 0.000000
Zn30  Zn    Zn3+2 0.950208 0.905710 0.188548 0.000000
Zn31  Zn    Zn3+2 0.935782 0.894429 0.656047 0.000000
Zn32  Zn    Zn3+2 0.342119 0.521765 0.504667 0.000000
Zn33  Zn    Zn3+2 0.945757 0.521950 0.655429 0.000000
Zn34  Zn    Zn3+2 0.927925 0.594428 0.795776 0.000000
Zn35  Zn    Zn3+2 0.425225 0.330861 0.702157 0.000000
Zn36  Zn    Zn3+2 0.791191 0.095359 0.183654 0.000000
Zn37  Zn    Zn3+2 0.085720 0.085992 0.658175 0.000000
Zn38  Zn    Zn3+2 0.141681 0.918526 0.865333 0.000000
Zn39  Zn    Zn3+2 0.955573 0.531083 0.191743 0.000000
Zn40  Zn    Zn3+2 0.746004 0.526740 0.985923 0.000000
Zn41  Zn    Zn3+2 0.737305 0.890866 0.987763 0.000000
Zn42  Zn    Zn3+2 0.946802 0.836056 0.047166 0.000000
Zn43  Zn    Zn3+2 0.925731 0.836734 0.800452 0.000000
Zn44  Zn    Zn3+2 0.699738 0.839626 0.850375 0.000000
Zn45  Zn    Zn3+2 0.961049 0.586158 0.050788 0.000000
Zn46  Zn    Zn3+2 0.293685 0.717244 0.588733 0.000000
Zn47  Zn    Zn3+2 0.175554 0.843056 0.001875 0.000000
Zn48  Zn    Zn3+2 0.590409 0.336874 0.261365 0.000000
Zn49  Zn    Zn3+2 0.581211 0.100270 0.257993 0.000000
Zn50  Zn    Zn3+2 0.679256 0.339950 0.063828 0.000000
Zn51  Zn    Zn3+2 0.671081 0.097124 0.058922 0.000000
Zn52  Zn    Zn3+2 0.204076 0.107868 0.785334 0.000000
Zn53  Zn    Zn3+2 0.470346 0.345360 0.133553 0.000000
Zn54  Zn    Zn3+2 0.179020 0.593854 0.995482 0.000000
Zn55  Zn    Zn3+2 0.700096 0.593417 0.847628 0.000000
Zn56  Zn    Zn3+2 0.460983 0.103991 0.128528 0.000000
C1    C     C_3   0.477111 0.624048 0.627892 0.000000
N1    N     N_3   0.453262 0.672246 0.634772 0.000000
C2    C     C_3   0.400369 0.661183 0.637527 0.000000
C3    C     C_R   0.372185 0.704646 0.649541 0.000000
N2    N     N_R   0.383941 0.729336 0.677454 0.000000
C4    C     C_R   0.356312 0.770877 0.675760 0.000000
C5    C     C_R   0.358068 0.811348 0.695938 0.000000
C6    C     C_R   0.341918 0.856455 0.685753 0.000000
C7    C     C_R   0.320483 0.859280 0.657055 0.000000
C8    C     C_R   0.311752 0.815636 0.639024 0.000000
C9    C     C_R   0.329568 0.771005 0.649101 0.000000
N3    N     N_R   0.335211 0.727395 0.632310 0.000000
H1    H     H_    0.517517 0.628348 0.631994 0.000000
H2    H     H_    0.464162 0.595337 0.644005 0.000000
H3    H     H_    0.469904 0.611093 0.603818 0.000000
H4    H     H_    0.459441 0.696091 0.616671 0.000000
H5    H     H_    0.387652 0.652739 0.614027 0.000000
H6    H     H_    0.394493 0.631643 0.654281 0.000000
H7    H     H_    0.374565 0.809443 0.718171 0.000000
H8    H     H_    0.348387 0.889688 0.700104 0.000000
H9    H     H_    0.311045 0.896004 0.648857 0.000000
H10   H     H_    0.297734 0.817850 0.616340 0.000000
C10   C     C_3   0.241613 0.467902 0.727576 0.000000
N4    N     N_3   0.245645 0.412925 0.727016 0.000000
C11   C     C_3   0.296403 0.400178 0.718119 0.000000
C12   C     C_R   0.314938 0.355919 0.734628 0.000000
N5    N     N_R   0.293766 0.343992 0.762521 0.000000
C13   C     C_R   0.334837 0.329988 0.778349 0.000000
C14   C     C_R   0.339186 0.322401 0.809166 0.000000
C15   C     C_R   0.386720 0.322455 0.822099 0.000000
C16   C     C_R   0.429273 0.328406 0.804037 0.000000
C17   C     C_R   0.424295 0.332722 0.772786 0.000000
C18   C     C_R   0.376815 0.333680 0.760839 0.000000
N6    N     N_R   0.365265 0.343471 0.731988 0.000000
H11   H     H_    0.201298 0.477344 0.727244 0.000000
H12   H     H_    0.258697 0.485233 0.748236 0.000000
H13   H     H_    0.261151 0.484080 0.707717 0.000000
H14   H     H_    0.223522 0.400331 0.708555 0.000000
H15   H     H_    0.297859 0.392355 0.693255 0.000000
H16   H     H_    0.321468 0.432837 0.724906 0.000000
H17   H     H_    0.307298 0.325438 0.823678 0.000000
H18   H     H_    0.390592 0.319655 0.846603 0.000000
H19   H     H_    0.466329 0.328616 0.814273 0.000000
H20   H     H_    0.456496 0.336572 0.758174 0.000000
C19   C     C_3   0.039689 0.371775 0.837996 0.000000
N7    N     N_3   0.076218 0.405585 0.823811 0.000000
C20   C     C_3   0.125206 0.397578 0.837269 0.000000
C21   C     C_R   0.165408 0.428255 0.822053 0.000000
N8    N     N_R   0.204240 0.405064 0.806014 0.000000
C22   C     C_R   0.238692 0.443076 0.804769 0.000000
C23   C     C_R   0.289542 0.439959 0.800488 0.000000
C24   C     C_R   0.318537 0.482957 0.796936 0.000000
C25   C     C_R   0.295021 0.528560 0.797634 0.000000
C26   C     C_R   0.245896 0.530996 0.808276 0.000000
C27   C     C_R   0.219620 0.487402 0.814730 0.000000
N9    N     N_R   0.173822 0.480222 0.827954 0.000000
H21   H     H_    0.002263 0.376313 0.827310 0.000000
H22   H     H_    0.051036 0.331620 0.834609 0.000000
H23   H     H_    0.036961 0.381704 0.862864 0.000000
H24   H     H_    0.065945 0.442438 0.830228 0.000000
H25   H     H_    0.124446 0.408591 0.862050 0.000000
H26   H     H_    0.134733 0.356786 0.834375 0.000000
H27   H     H_    0.307791 0.406607 0.804290 0.000000
H28   H     H_    0.358463 0.480602 0.792199 0.000000
H29   H     H_    0.315807 0.561593 0.790277 0.000000
H30   H     H_    0.227150 0.564842 0.806957 0.000000
C28   C     C_3   0.337074 0.614087 0.849759 0.000000
N10   N     N_3   0.296563 0.641558 0.835850 0.000000
C29   C     C_3   0.250909 0.635091 0.853430 0.000000
C30   C     C_R   0.205019 0.638979 0.833924 0.000000
N11   N     N_R   0.195234 0.676477 0.813245 0.000000
C31   C     C_R   0.145059 0.671023 0.810557 0.000000
C32   C     C_R   0.114207 0.706319 0.800168 0.000000
C33   C     C_R   0.068147 0.710004 0.813815 0.000000
C34   C     C_R   0.050209 0.675836 0.833988 0.000000
C35   C     C_R   0.082068 0.640887 0.843665 0.000000
C36   C     C_R   0.126760 0.634826 0.828781 0.000000
N12   N     N_R   0.163604 0.608316 0.839725 0.000000
H31   H     H_    0.371342 0.617205 0.835320 0.000000
H32   H     H_    0.345309 0.631184 0.872868 0.000000
H33   H     H_    0.326831 0.573236 0.851741 0.000000
H34   H     H_    0.290391 0.629232 0.813286 0.000000
H35   H     H_    0.249594 0.597279 0.863805 0.000000
H36   H     H_    0.250530 0.664075 0.872483 0.000000
H37   H     H_    0.128114 0.738193 0.788315 0.000000
H38   H     H_    0.049186 0.744398 0.811903 0.000000
H39   H     H_    0.013640 0.679565 0.844424 0.000000
H40   H     H_    0.072827 0.621873 0.863964 0.000000
C37   C     C_3   0.308895 0.605620 0.708253 0.000000
N13   N     N_3   0.287117 0.637936 0.732204 0.000000
C38   C     C_3   0.294712 0.690825 0.724288 0.000000
C39   C     C_R   0.320297 0.717874 0.750139 0.000000
N14   N     N_R   0.297004 0.725365 0.778002 0.000000
C40   C     C_R   0.336017 0.724867 0.797868 0.000000
C41   C     C_R   0.336684 0.738123 0.828645 0.000000
C42   C     C_R   0.382027 0.735966 0.844132 0.000000
C43   C     C_R   0.425961 0.723074 0.828574 0.000000
C44   C     C_R   0.425367 0.714141 0.797157 0.000000
C45   C     C_R   0.379634 0.715243 0.782519 0.000000
N15   N     N_R   0.371400 0.715745 0.752217 0.000000
H41   H     H_    0.304416 0.565332 0.714489 0.000000
H42   H     H_    0.288980 0.610942 0.686372 0.000000
H43   H     H_    0.349727 0.614772 0.706151 0.000000
H44   H     H_    0.307075 0.631977 0.752247 0.000000
H45   H     H_    0.317617 0.691525 0.703766 0.000000
H46   H     H_    0.259556 0.709521 0.718894 0.000000
H47   H     H_    0.303097 0.748982 0.840699 0.000000
H48   H     H_    0.383293 0.744811 0.868509 0.000000
H49   H     H_    0.461151 0.722261 0.840852 0.000000
H50   H     H_    0.459878 0.708185 0.784463 0.000000
C46   C     C_3   0.171199 0.581158 0.749733 0.000000
N16   N     N_3   0.139883 0.619566 0.737316 0.000000
C47   C     C_3   0.176033 0.657863 0.729037 0.000000
C48   C     C_R   0.156836 0.709255 0.727684 0.000000
N17   N     N_R   0.137665 0.731768 0.701361 0.000000
C49   C     C_R   0.159595 0.778633 0.705392 0.000000
C50   C     C_R   0.169000 0.811723 0.683214 0.000000
C51   C     C_R   0.210079 0.844329 0.686747 0.000000
C52   C     C_R   0.234599 0.850463 0.714387 0.000000
C53   C     C_R   0.220783 0.821205 0.738033 0.000000
C54   C     C_R   0.185145 0.784341 0.732382 0.000000
N18   N     N_R   0.182333 0.742280 0.747660 0.000000
H51   H     H_    0.153483 0.543629 0.745731 0.000000
H52   H     H_    0.208269 0.579424 0.738184 0.000000
H53   H     H_    0.176865 0.590628 0.774073 0.000000
H54   H     H_    0.118538 0.634543 0.755212 0.000000
H55   H     H_    0.202397 0.662097 0.748532 0.000000
H56   H     H_    0.198157 0.647060 0.708534 0.000000
H57   H     H_    0.147084 0.809736 0.663265 0.000000
H58   H     H_    0.222912 0.866293 0.668226 0.000000
H59   H     H_    0.264669 0.877986 0.717547 0.000000
H60   H     H_    0.242499 0.822332 0.758540 0.000000
C55   C     C_3   0.385823 0.198475 0.802189 0.000000
N19   N     N_3   0.420501 0.206947 0.776950 0.000000
C56   C     C_3   0.392265 0.212984 0.748894 0.000000
C57   C     C_R   0.427171 0.214444 0.722776 0.000000
N20   N     N_R   0.450472 0.258004 0.711763 0.000000
C58   C     C_R   0.493832 0.239323 0.700478 0.000000
C59   C     C_R   0.533651 0.266015 0.688587 0.000000
C60   C     C_R   0.576563 0.239726 0.680510 0.000000
C61   C     C_R   0.579279 0.187962 0.685418 0.000000
C62   C     C_R   0.538557 0.161647 0.697538 0.000000
C63   C     C_R   0.495172 0.187841 0.703482 0.000000
N21   N     N_R   0.451548 0.170373 0.715548 0.000000
H61   H     H_    0.379591 0.157033 0.804553 0.000000
H62   H     H_    0.349117 0.216234 0.798077 0.000000
H63   H     H_    0.402599 0.214611 0.823780 0.000000
H64   H     H_    0.444349 0.238089 0.781677 0.000000
H65   H     H_    0.371896 0.177878 0.745236 0.000000
H66   H     H_    0.364738 0.243091 0.749962 0.000000
H67   H     H_    0.532516 0.306481 0.687054 0.000000
H68   H     H_    0.608902 0.260024 0.671485 0.000000
H69   H     H_    0.613735 0.168219 0.680185 0.000000
H70   H     H_    0.541760 0.122137 0.702820 0.000000
C64   C     C_3   0.232642 0.130964 0.683938 0.000000
N22   N     N_3   0.240805 0.128000 0.716682 0.000000
C65   C     C_3   0.290179 0.144047 0.726634 0.000000
C66   C     C_R   0.308114 0.105352 0.746474 0.000000
N23   N     N_R   0.280314 0.092924 0.772036 0.000000
C67   C     C_R   0.315011 0.069194 0.788309 0.000000
C68   C     C_R   0.312643 0.058247 0.818693 0.000000
C69   C     C_R   0.353850 0.036342 0.831579 0.000000
C70   C     C_R   0.394323 0.021636 0.813419 0.000000
C71   C     C_R   0.396458 0.034106 0.783005 0.000000
C72   C     C_R   0.358542 0.062510 0.771712 0.000000
N24   N     N_R   0.356802 0.086550 0.744867 0.000000
H71   H     H_    0.227260 0.092723 0.673424 0.000000
H72   H     H_    0.196561 0.149999 0.680792 0.000000
H73   H     H_    0.264814 0.148382 0.671847 0.000000
H74   H     H_    0.243370 0.089855 0.720227 0.000000
H75   H     H_    0.317149 0.148072 0.707751 0.000000
H76   H     H_    0.286993 0.178959 0.741533 0.000000
H77   H     H_    0.280143 0.066723 0.832474 0.000000
H78   H     H_    0.353413 0.028701 0.855698 0.000000
H79   H     H_    0.424631 0.000773 0.823148 0.000000
H80   H     H_    0.425955 0.019800 0.768716 0.000000
C73   C     C_3   0.176390 0.705359 0.332922 0.000000
N25   N     N_3   0.197721 0.705613 0.302372 0.000000
C74   C     C_3   0.164115 0.734512 0.284776 0.000000
C75   C     C_R   0.170826 0.725129 0.251403 0.000000
N26   N     N_R   0.165281 0.765250 0.232188 0.000000
C76   C     C_R   0.155612 0.740498 0.205418 0.000000
C77   C     C_R   0.142517 0.761067 0.178716 0.000000
C78   C     C_R   0.142183 0.729603 0.152824 0.000000
C79   C     C_R   0.152628 0.678269 0.154574 0.000000
C80   C     C_R   0.155761 0.656995 0.182545 0.000000
C81   C     C_R   0.159432 0.689447 0.207677 0.000000
N27   N     N_R   0.169158 0.676983 0.236463 0.000000
H81   H     H_    0.201351 0.684244 0.347455 0.000000
H82   H     H_    0.172818 0.745011 0.342149 0.000000
H83   H     H_    0.138891 0.685921 0.332726 0.000000
H84   H     H_    0.196138 0.668866 0.293140 0.000000
H85   H     H_    0.124644 0.725057 0.290773 0.000000
H86   H     H_    0.171870 0.774836 0.290582 0.000000
H87   H     H_    0.138403 0.801201 0.177684 0.000000
H88   H     H_    0.137803 0.746313 0.131083 0.000000
H89   H     H_    0.156831 0.653815 0.134395 0.000000
H90   H     H_    0.156295 0.616330 0.183990 0.000000
C82   C     C_3   0.305215 0.942146 0.265036 0.000000
N28   N     N_3   0.326711 0.896033 0.276139 0.000000
C83   C     C_3   0.291580 0.853824 0.268615 0.000000
C84   C     C_R   0.250454 0.851039 0.291710 0.000000
N29   N     N_R   0.256460 0.855959 0.323856 0.000000
C85   C     C_R   0.211255 0.876080 0.331884 0.000000
C86   C     C_R   0.195386 0.893757 0.360317 0.000000
C87   C     C_R   0.149385 0.917302 0.362819 0.000000
C88   C     C_R   0.120548 0.924689 0.337051 0.000000
C89   C     C_R   0.136729 0.907127 0.308579 0.000000
C90   C     C_R   0.180877 0.880923 0.306755 0.000000
N30   N     N_R   0.203064 0.862246 0.281144 0.000000
H91   H     H_    0.326906 0.976170 0.273150 0.000000
H92   H     H_    0.306517 0.941123 0.239719 0.000000
H93   H     H_    0.266538 0.946530 0.274063 0.000000
H94   H     H_    0.329745 0.900805 0.299870 0.000000
H95   H     H_    0.273654 0.861150 0.246553 0.000000
H96   H     H_    0.310024 0.817641 0.263947 0.000000
H97   H     H_    0.217955 0.891320 0.380376 0.000000
H98   H     H_    0.136704 0.931762 0.384975 0.000000
H99   H     H_    0.085754 0.945154 0.339156 0.000000
H100  H     H_    0.116265 0.916074 0.288324 0.000000
C91   C     C_3   0.341415 0.521215 0.239731 0.000000
N31   N     N_3   0.303976 0.518299 0.263964 0.000000
C92   C     C_3   0.302058 0.568816 0.278541 0.000000
C93   C     C_R   0.255136 0.574241 0.296796 0.000000
N32   N     N_R   0.253095 0.576736 0.328946 0.000000
C94   C     C_R   0.202620 0.578095 0.333368 0.000000
C95   C     C_R   0.177470 0.587494 0.360165 0.000000
C96   C     C_R   0.125418 0.588506 0.360132 0.000000
C97   C     C_R   0.099242 0.582445 0.332820 0.000000
C98   C     C_R   0.125344 0.577698 0.305506 0.000000
C99   C     C_R   0.176923 0.576352 0.306312 0.000000
N33   N     N_R   0.208724 0.577652 0.282347 0.000000
H101  H     H_    0.354424 0.482562 0.233351 0.000000
H102  H     H_    0.325062 0.538190 0.219340 0.000000
H103  H     H_    0.373862 0.545350 0.247729 0.000000
H104  H     H_    0.317370 0.493431 0.279815 0.000000
H105  H     H_    0.335697 0.576722 0.293135 0.000000
H106  H     H_    0.299821 0.595080 0.259789 0.000000
H107  H     H_    0.198005 0.595348 0.380533 0.000000
H108  H     H_    0.105225 0.594963 0.381420 0.000000
H109  H     H_    0.058520 0.583419 0.332754 0.000000
H110  H     H_    0.105538 0.574128 0.284339 0.000000
C100  C     C_3   0.702240 0.736279 0.419466 0.000000
N34   N     N_3   0.666730 0.740111 0.444733 0.000000
C101  C     C_3   0.623512 0.705850 0.438661 0.000000
C102  C     C_R   0.590278 0.707848 0.465946 0.000000
N35   N     N_R   0.573938 0.665158 0.481898 0.000000
C103  C     C_R   0.555337 0.687492 0.507328 0.000000
C104  C     C_R   0.533308 0.664093 0.531339 0.000000
C105  C     C_R   0.510286 0.695031 0.552817 0.000000
C106  C     C_R   0.517349 0.747112 0.552589 0.000000
C107  C     C_R   0.546430 0.769409 0.531000 0.000000
C108  C     C_R   0.560160 0.738905 0.506889 0.000000
N36   N     N_R   0.580811 0.754283 0.480865 0.000000
H111  H     H_    0.730838 0.767618 0.422095 0.000000
H112  H     H_    0.721817 0.699567 0.419923 0.000000
H113  H     H_    0.682305 0.740045 0.397429 0.000000
H114  H     H_    0.653946 0.777404 0.445335 0.000000
H115  H     H_    0.602616 0.717959 0.418409 0.000000
H116  H     H_    0.635542 0.666542 0.434501 0.000000
H117  H     H_    0.531326 0.623572 0.533105 0.000000
H118  H     H_    0.487261 0.678331 0.570174 0.000000
H119  H     H_    0.501756 0.770871 0.570001 0.000000
H120  H     H_    0.552796 0.810016 0.531793 0.000000
C109  C     C_3   0.330589 0.705088 0.277274 0.000000
N37   N     N_3   0.308020 0.705100 0.307147 0.000000
C110  C     C_3   0.346929 0.699449 0.329772 0.000000
C111  C     C_R   0.322173 0.709433 0.358949 0.000000
N38   N     N_R   0.302020 0.756657 0.366285 0.000000
C112  C     C_R   0.264242 0.743754 0.385066 0.000000
C113  C     C_R   0.226507 0.774565 0.395571 0.000000
C114  C     C_R   0.188724 0.753729 0.413159 0.000000
C115  C     C_R   0.190808 0.703333 0.420934 0.000000
C116  C     C_R   0.230396 0.673399 0.411071 0.000000
C117  C     C_R   0.265238 0.693462 0.391396 0.000000
N39   N     N_R   0.300821 0.669469 0.374359 0.000000
H121  H     H_    0.323994 0.668408 0.265995 0.000000
H122  H     H_    0.313144 0.734159 0.263513 0.000000
H123  H     H_    0.371341 0.710746 0.279460 0.000000
H124  H     H_    0.285368 0.672352 0.307853 0.000000
H125  H     H_    0.361002 0.660021 0.328423 0.000000
H126  H     H_    0.377971 0.727425 0.327817 0.000000
H127  H     H_    0.225786 0.813390 0.389701 0.000000
H128  H     H_    0.157822 0.776888 0.421122 0.000000
H129  H     H_    0.160897 0.687319 0.434589 0.000000
H130  H     H_    0.233094 0.635596 0.418687 0.000000
C118  C     C_3   0.442640 0.905103 0.662916 0.000000
N40   N     N_3   0.441296 0.944779 0.687245 0.000000
C119  C     C_3   0.490300 0.969777 0.686987 0.000000
C120  C     C_R   0.501473 0.000362 0.715424 0.000000
N41   N     N_R   0.479309 0.046269 0.724088 0.000000
C121  C     C_R   0.505669 0.059962 0.749547 0.000000
C122  C     C_R   0.496078 0.100717 0.769149 0.000000
C123  C     C_R   0.521154 0.104831 0.796768 0.000000
C124  C     C_R   0.552925 0.066710 0.804993 0.000000
C125  C     C_R   0.561070 0.025197 0.785300 0.000000
C126  C     C_R   0.539416 0.023710 0.756593 0.000000
N42   N     N_R   0.539747 0.985896 0.734513 0.000000
H131  H     H_    0.444853 0.867219 0.672858 0.000000
H132  H     H_    0.408476 0.906731 0.648666 0.000000
H133  H     H_    0.475295 0.910653 0.647387 0.000000
H134  H     H_    0.437557 0.926778 0.708033 0.000000
H135  H     H_    0.518266 0.939369 0.686200 0.000000
H136  H     H_    0.494158 0.994443 0.667171 0.000000
H137  H     H_    0.467394 0.127017 0.764095 0.000000
H138  H     H_    0.513594 0.136223 0.812751 0.000000
H139  H     H_    0.569867 0.068310 0.827506 0.000000
H140  H     H_    0.580671 0.993811 0.793911 0.000000
C127  C     C_3   0.616094 0.784819 0.714684 0.000000
N43   N     N_3   0.564012 0.770248 0.713318 0.000000
C128  C     C_3   0.537075 0.806608 0.695779 0.000000
C129  C     C_R   0.501655 0.827275 0.716850 0.000000
N44   N     N_R   0.462700 0.799712 0.730485 0.000000
C130  C     C_R   0.455909 0.829965 0.756294 0.000000
C131  C     C_R   0.424724 0.823471 0.780506 0.000000
C132  C     C_R   0.437356 0.846583 0.808582 0.000000
C133  C     C_R   0.473120 0.885498 0.810309 0.000000
C134  C     C_R   0.497752 0.899140 0.784079 0.000000
C135  C     C_R   0.489423 0.869776 0.757860 0.000000
N45   N     N_R   0.518773 0.868994 0.733279 0.000000
H141  H     H_    0.636554 0.757930 0.728132 0.000000
H142  H     H_    0.631478 0.781922 0.691181 0.000000
H143  H     H_    0.618951 0.822757 0.726422 0.000000
H144  H     H_    0.550127 0.770934 0.735502 0.000000
H145  H     H_    0.562418 0.837255 0.688834 0.000000
H146  H     H_    0.518085 0.792821 0.674647 0.000000
H147  H     H_    0.389984 0.803957 0.777305 0.000000
H148  H     H_    0.416147 0.837572 0.828876 0.000000
H149  H     H_    0.481209 0.905438 0.831930 0.000000
H150  H     H_    0.527030 0.927803 0.785133 0.000000
C136  C     C_3   0.730053 0.936012 0.709199 0.000000
N46   N     N_3   0.741659 0.891446 0.689803 0.000000
C137  C     C_3   0.701669 0.853592 0.691920 0.000000
C138  C     C_R   0.657973 0.871462 0.674578 0.000000
N47   N     N_R   0.622925 0.905048 0.687813 0.000000
C139  C     C_R   0.611622 0.932197 0.663313 0.000000
C140  C     C_R   0.597358 0.982036 0.664224 0.000000
C141  C     C_R   0.592432 0.006091 0.636940 0.000000
C142  C     C_R   0.603283 0.980811 0.609361 0.000000
C143  C     C_R   0.624083 0.933107 0.609167 0.000000
C144  C     C_R   0.630983 0.910879 0.636774 0.000000
N48   N     N_R   0.662106 0.872641 0.642846 0.000000
H151  H     H_    0.765084 0.957713 0.715200 0.000000
H152  H     H_    0.704673 0.961436 0.697226 0.000000
H153  H     H_    0.711920 0.924233 0.730406 0.000000
H154  H     H_    0.775300 0.875388 0.696192 0.000000
H155  H     H_    0.714584 0.817285 0.681060 0.000000
H156  H     H_    0.693146 0.847657 0.716161 0.000000
H157  H     H_    0.592329 0.002885 0.685698 0.000000
H158  H     H_    0.580885 0.045094 0.637325 0.000000
H159  H     H_    0.598904 0.999901 0.588086 0.000000
H160  H     H_    0.636514 0.915771 0.588024 0.000000
C145  C     C_3   0.250148 0.750716 0.126869 0.000000
N49   N     N_3   0.239690 0.803453 0.134716 0.000000
C146  C     C_3   0.252735 0.811996 0.166734 0.000000
C147  C     C_R   0.241409 0.864677 0.176272 0.000000
N50   N     N_R   0.263042 0.905525 0.161677 0.000000
C148  C     C_R   0.250320 0.944949 0.181004 0.000000
C149  C     C_R   0.268353 0.994411 0.181999 0.000000
C150  C     C_R   0.251460 0.027764 0.204889 0.000000
C151  C     C_R   0.218943 0.011064 0.227462 0.000000
C152  C     C_R   0.204681 0.960238 0.227958 0.000000
C153  C     C_R   0.221007 0.928200 0.204542 0.000000
N51   N     N_R   0.214328 0.877435 0.202579 0.000000
H161  H     H_    0.224430 0.734543 0.109516 0.000000
H162  H     H_    0.289303 0.747614 0.118511 0.000000
H163  H     H_    0.242472 0.727607 0.146695 0.000000
H164  H     H_    0.201239 0.809383 0.132514 0.000000
H165  H     H_    0.232995 0.786253 0.181927 0.000000
H166  H     H_    0.292596 0.804322 0.169906 0.000000
H167  H     H_    0.296951 0.007123 0.166916 0.000000
H168  H     H_    0.264789 0.066961 0.205584 0.000000
H169  H     H_    0.206602 0.037341 0.245472 0.000000
H170  H     H_    0.181313 0.946188 0.246218 0.000000
C154  C     C_3   0.404233 0.992949 0.189620 0.000000
N52   N     N_3   0.420961 0.954239 0.167509 0.000000
C155  C     C_3   0.439400 0.976026 0.139885 0.000000
C156  C     C_R   0.397520 0.000328 0.124984 0.000000
N53   N     N_R   0.350655 0.976863 0.119885 0.000000
C157  C     C_R   0.322999 0.017074 0.112678 0.000000
C158  C     C_R   0.271750 0.017007 0.109732 0.000000
C159  C     C_R   0.248269 0.063363 0.108726 0.000000
C160  C     C_R   0.276095 0.108570 0.112471 0.000000
C161  C     C_R   0.327720 0.107886 0.116679 0.000000
C162  C     C_R   0.350882 0.061672 0.115050 0.000000
N54   N     N_R   0.399271 0.052403 0.121676 0.000000
H171  H     H_    0.378771 0.975104 0.206297 0.000000
H172  H     H_    0.436805 0.010326 0.201764 0.000000
H173  H     H_    0.381382 0.021745 0.179144 0.000000
H174  H     H_    0.388047 0.936829 0.159885 0.000000
H175  H     H_    0.468086 0.006002 0.145048 0.000000
H176  H     H_    0.454220 0.945141 0.124659 0.000000
H177  H     H_    0.250570 0.981872 0.111326 0.000000
H178  H     H_    0.207718 0.064546 0.107074 0.000000
H179  H     H_    0.256982 0.144480 0.113584 0.000000
H180  H     H_    0.348258 0.142482 0.123009 0.000000
C163  C     C_3   0.235611 0.411979 0.204418 0.000000
N55   N     N_3   0.256649 0.461935 0.197983 0.000000
C164  C     C_3   0.220984 0.490079 0.180337 0.000000
C165  C     C_R   0.240771 0.542649 0.178110 0.000000
N56   N     N_R   0.232382 0.578822 0.201719 0.000000
C166  C     C_R   0.262354 0.617311 0.193180 0.000000
C167  C     C_R   0.272085 0.661817 0.209667 0.000000
C168  C     C_R   0.301639 0.698582 0.196461 0.000000
C169  C     C_R   0.318745 0.690476 0.166871 0.000000
C170  C     C_R   0.306349 0.646285 0.150191 0.000000
C171  C     C_R   0.282748 0.607492 0.164947 0.000000
N57   N     N_R   0.273047 0.558837 0.154669 0.000000
H181  H     H_    0.225757 0.411137 0.229030 0.000000
H182  H     H_    0.201738 0.403139 0.190180 0.000000
H183  H     H_    0.264513 0.382920 0.199688 0.000000
H184  H     H_    0.289331 0.457189 0.184961 0.000000
H185  H     H_    0.214581 0.472956 0.157389 0.000000
H186  H     H_    0.184280 0.491392 0.191974 0.000000
H187  H     H_    0.259078 0.666978 0.232839 0.000000
H188  H     H_    0.310897 0.733935 0.208879 0.000000
H189  H     H_    0.340304 0.720075 0.156232 0.000000
H190  H     H_    0.314790 0.643640 0.126304 0.000000
C172  C     C_3   0.421362 0.471228 0.033952 0.000000
N58   N     N_3   0.391543 0.463864 0.061427 0.000000
C173  C     C_3   0.425705 0.461676 0.087223 0.000000
C174  C     C_R   0.397195 0.442107 0.113900 0.000000
N59   N     N_R   0.348160 0.458204 0.118698 0.000000
C175  C     C_R   0.325429 0.415419 0.128524 0.000000
C176  C     C_R   0.274613 0.404549 0.129169 0.000000
C177  C     C_R   0.258590 0.356052 0.136441 0.000000
C178  C     C_R   0.293356 0.319548 0.143139 0.000000
C179  C     C_R   0.344436 0.330274 0.140746 0.000000
C180  C     C_R   0.359647 0.378060 0.132297 0.000000
N60   N     N_R   0.406873 0.394091 0.125020 0.000000
H191  H     H_    0.436962 0.434298 0.025900 0.000000
H192  H     H_    0.396792 0.485070 0.015698 0.000000
H193  H     H_    0.452261 0.499602 0.038723 0.000000
H194  H     H_    0.374564 0.427757 0.058558 0.000000
H195  H     H_    0.455150 0.434297 0.080530 0.000000
H196  H     H_    0.441811 0.500152 0.092956 0.000000
H197  H     H_    0.248163 0.431493 0.121310 0.000000
H198  H     H_    0.218735 0.346486 0.136741 0.000000
H199  H     H_    0.280469 0.281868 0.149096 0.000000
H200  H     H_    0.371000 0.301234 0.144637 0.000000
C181  C     C_3   0.837909 0.705059 0.554857 0.000000
N61   N     N_3   0.803842 0.684287 0.577736 0.000000
C182  C     C_3   0.798954 0.718148 0.604573 0.000000
C183  C     C_R   0.746494 0.714953 0.615018 0.000000
N62   N     N_R   0.716282 0.757841 0.615548 0.000000
C184  C     C_R   0.670604 0.735964 0.615257 0.000000
C185  C     C_R   0.626509 0.759863 0.611039 0.000000
C186  C     C_R   0.585433 0.729254 0.603935 0.000000
C187  C     C_R   0.589361 0.676829 0.600623 0.000000
C188  C     C_R   0.633234 0.654040 0.607033 0.000000
C189  C     C_R   0.673128 0.684310 0.614377 0.000000
N63   N     N_R   0.720135 0.668324 0.615200 0.000000
H201  H     H_    0.864999 0.675503 0.547459 0.000000
H202  H     H_    0.816367 0.714893 0.534557 0.000000
H203  H     H_    0.859049 0.739227 0.563428 0.000000
H204  H     H_    0.819203 0.651043 0.585401 0.000000
H205  H     H_    0.824743 0.707255 0.622779 0.000000
H206  H     H_    0.805878 0.757614 0.599218 0.000000
H207  H     H_    0.623597 0.800610 0.611759 0.000000
H208  H     H_    0.549133 0.746081 0.605439 0.000000
H209  H     H_    0.558097 0.652659 0.594086 0.000000
H210  H     H_    0.636891 0.613861 0.605464 0.000000
C190  C     C_3   0.744887 0.769647 0.510445 0.000000
N64   N     N_3   0.720545 0.754467 0.538807 0.000000
C191  C     C_3   0.667000 0.765853 0.538168 0.000000
C192  C     C_R   0.658276 0.821928 0.542946 0.000000
N65   N     N_R   0.688757 0.849571 0.563855 0.000000
C193  C     C_R   0.705587 0.888034 0.546618 0.000000
C194  C     C_R   0.745282 0.921205 0.552902 0.000000
C195  C     C_R   0.766523 0.947193 0.528999 0.000000
C196  C     C_R   0.750758 0.936034 0.499227 0.000000
C197  C     C_R   0.710446 0.902709 0.493659 0.000000
C198  C     C_R   0.683832 0.884900 0.518200 0.000000
N66   N     N_R   0.647710 0.847992 0.516712 0.000000
H211  H     H_    0.778611 0.793891 0.516096 0.000000
H212  H     H_    0.756679 0.735252 0.497084 0.000000
H213  H     H_    0.719803 0.790987 0.495735 0.000000
H214  H     H_    0.738539 0.773665 0.557163 0.000000
H215  H     H_    0.653826 0.753433 0.515308 0.000000
H216  H     H_    0.646128 0.742757 0.554496 0.000000
H217  H     H_    0.761331 0.925661 0.575227 0.000000
H218  H     H_    0.798422 0.972859 0.533236 0.000000
H219  H     H_    0.770730 0.952533 0.480279 0.000000
H220  H     H_    0.700701 0.890279 0.470511 0.000000
C199  C     C_3   0.523107 0.484269 0.629055 0.000000
N67   N     N_3   0.567377 0.494875 0.647782 0.000000
C200  C     C_3   0.581884 0.548633 0.647102 0.000000
C201  C     C_R   0.630668 0.554771 0.662786 0.000000
N68   N     N_R   0.629932 0.532500 0.691101 0.000000
C202  C     C_R   0.671148 0.503967 0.688921 0.000000
C203  C     C_R   0.680769 0.463090 0.706128 0.000000
C204  C     C_R   0.718690 0.430821 0.696518 0.000000
C205  C     C_R   0.745797 0.439979 0.670021 0.000000
C206  C     C_R   0.734710 0.480892 0.652489 0.000000
C207  C     C_R   0.697562 0.513050 0.662456 0.000000
N69   N     N_R   0.675804 0.549419 0.646191 0.000000
H221  H     H_    0.501434 0.452849 0.639357 0.000000
H222  H     H_    0.499649 0.518294 0.628277 0.000000
H223  H     H_    0.533926 0.471805 0.605531 0.000000
H224  H     H_    0.596646 0.472882 0.638926 0.000000
H225  H     H_    0.584052 0.561326 0.624172 0.000000
H226  H     H_    0.553711 0.570845 0.659549 0.000000
H227  H     H_    0.658429 0.455666 0.726135 0.000000
H228  H     H_    0.726753 0.397785 0.709484 0.000000
H229  H     H_    0.774239 0.413618 0.662279 0.000000
H230  H     H_    0.751045 0.483645 0.630209 0.000000
C208  C     C_3   0.773934 0.605652 0.691459 0.000000
N70   N     N_3   0.824443 0.589613 0.685083 0.000000
C209  C     C_3   0.836930 0.610566 0.656027 0.000000
C210  C     C_R   0.837247 0.569024 0.632820 0.000000
N71   N     N_R   0.878580 0.537627 0.628846 0.000000
C211  C     C_R   0.865015 0.510935 0.602994 0.000000
C212  C     C_R   0.892894 0.475577 0.586844 0.000000
C213  C     C_R   0.870412 0.450007 0.561929 0.000000
C214  C     C_R   0.821034 0.459831 0.553786 0.000000
C215  C     C_R   0.793851 0.496594 0.569779 0.000000
C216  C     C_R   0.817313 0.523105 0.593681 0.000000
N72   N     N_R   0.797677 0.560206 0.612117 0.000000
H231  H     H_    0.758954 0.584735 0.710949 0.000000
H232  H     H_    0.774912 0.647329 0.696196 0.000000
H233  H     H_    0.749445 0.597439 0.671496 0.000000
H234  H     H_    0.823141 0.550024 0.681918 0.000000
H235  H     H_    0.809163 0.638767 0.649556 0.000000
H236  H     H_    0.874064 0.629587 0.657047 0.000000
H237  H     H_    0.931144 0.467874 0.593222 0.000000
H238  H     H_    0.891238 0.421590 0.548935 0.000000
H239  H     H_    0.803745 0.438707 0.534665 0.000000
H240  H     H_    0.755365 0.503739 0.563676 0.000000
C217  C     C_3   0.493353 0.598444 0.806642 0.000000
N73   N     N_3   0.475472 0.563447 0.782135 0.000000
C218  C     C_3   0.446156 0.591366 0.760551 0.000000
C219  C     C_R   0.480680 0.617275 0.738775 0.000000
N74   N     N_R   0.526705 0.596945 0.729671 0.000000
C220  C     C_R   0.542719 0.631682 0.710677 0.000000
C221  C     C_R   0.589189 0.636820 0.699671 0.000000
C222  C     C_R   0.598270 0.672364 0.678377 0.000000
C223  C     C_R   0.558658 0.700137 0.668652 0.000000
C224  C     C_R   0.512503 0.697226 0.682783 0.000000
C225  C     C_R   0.507822 0.665635 0.705506 0.000000
N75   N     N_R   0.468935 0.661799 0.724116 0.000000
H241  H     H_    0.517218 0.577642 0.822501 0.000000
H242  H     H_    0.516210 0.629992 0.797148 0.000000
H243  H     H_    0.460999 0.613870 0.819821 0.000000
H244  H     H_    0.451133 0.536886 0.792002 0.000000
H245  H     H_    0.420900 0.564194 0.747604 0.000000
H246  H     H_    0.422131 0.619110 0.772842 0.000000
H247  H     H_    0.616936 0.614409 0.708963 0.000000
H248  H     H_    0.636032 0.680136 0.670546 0.000000
H249  H     H_    0.566497 0.732961 0.656259 0.000000
H250  H     H_    0.482337 0.722446 0.678534 0.000000
C226  C     C_3   0.690812 0.658887 0.731983 0.000000
N76   N     N_3   0.684703 0.611055 0.747570 0.000000
C227  C     C_3   0.650438 0.618727 0.773241 0.000000
C228  C     C_R   0.636630 0.569727 0.786516 0.000000
N77   N     N_R   0.603992 0.534671 0.772059 0.000000
C229  C     C_R   0.591049 0.504666 0.795409 0.000000
C230  C     C_R   0.553878 0.467505 0.795889 0.000000
C231  C     C_R   0.545564 0.442989 0.823003 0.000000
C232  C     C_R   0.573581 0.456370 0.849070 0.000000
C233  C     C_R   0.609368 0.495497 0.848630 0.000000
C234  C     C_R   0.616664 0.519553 0.821640 0.000000
N78   N     N_R   0.646697 0.560463 0.816867 0.000000
H251  H     H_    0.689684 0.651893 0.706957 0.000000
H252  H     H_    0.661249 0.685283 0.739257 0.000000
H253  H     H_    0.727421 0.677047 0.736398 0.000000
H254  H     H_    0.719418 0.601883 0.756499 0.000000
H255  H     H_    0.668657 0.642509 0.791554 0.000000
H256  H     H_    0.614934 0.635995 0.765952 0.000000
H257  H     H_    0.530336 0.458798 0.776353 0.000000
H258  H     H_    0.516495 0.413576 0.824011 0.000000
H259  H     H_    0.566400 0.437006 0.870080 0.000000
H260  H     H_    0.629783 0.507366 0.869042 0.000000
C235  C     C_3   0.386357 0.446007 0.613979 0.000000
N79   N     N_3   0.380433 0.448312 0.581069 0.000000
C236  C     C_3   0.327108 0.443934 0.574580 0.000000
C237  C     C_R   0.319080 0.420865 0.544627 0.000000
N80   N     N_R   0.317626 0.446673 0.517570 0.000000
C238  C     C_R   0.305409 0.407605 0.497571 0.000000
C239  C     C_R   0.291505 0.409494 0.467587 0.000000
C240  C     C_R   0.283262 0.364183 0.450901 0.000000
C241  C     C_R   0.292108 0.318075 0.463964 0.000000
C242  C     C_R   0.303551 0.316885 0.494727 0.000000
C243  C     C_R   0.304934 0.361917 0.511566 0.000000
N81   N     N_R   0.310564 0.368896 0.542001 0.000000
H261  H     H_    0.424705 0.458174 0.620703 0.000000
H262  H     H_    0.356914 0.467713 0.625986 0.000000
H263  H     H_    0.379978 0.408946 0.621946 0.000000
H264  H     H_    0.398183 0.417719 0.570331 0.000000
H265  H     H_    0.311287 0.414472 0.587959 0.000000
H266  H     H_    0.306033 0.479248 0.578591 0.000000
H267  H     H_    0.284208 0.444818 0.457697 0.000000
H268  H     H_    0.271848 0.364857 0.427183 0.000000
H269  H     H_    0.289026 0.282965 0.450255 0.000000
H270  H     H_    0.312564 0.281792 0.504859 0.000000
C244  C     C_3   0.627643 0.451197 0.564040 0.000000
N82   N     N_3   0.619426 0.496393 0.583513 0.000000
C245  C     C_3   0.598688 0.536250 0.565310 0.000000
C246  C     C_R   0.639068 0.564426 0.549590 0.000000
N83   N     N_R   0.686432 0.576363 0.562570 0.000000
C247  C     C_R   0.710910 0.594461 0.537961 0.000000
C248  C     C_R   0.761547 0.603961 0.534783 0.000000
C249  C     C_R   0.779293 0.620537 0.506955 0.000000
C250  C     C_R   0.746251 0.628693 0.483206 0.000000
C251  C     C_R   0.695515 0.617310 0.486461 0.000000
C252  C     C_R   0.679327 0.597583 0.513405 0.000000
N84   N     N_R   0.633144 0.578168 0.519379 0.000000
H271  H     H_    0.652846 0.425498 0.576047 0.000000
H272  H     H_    0.591152 0.430855 0.559649 0.000000
H273  H     H_    0.645598 0.461529 0.542108 0.000000
H274  H     H_    0.653986 0.508083 0.592904 0.000000
H275  H     H_    0.572799 0.519044 0.548551 0.000000
H276  H     H_    0.575251 0.563246 0.578394 0.000000
H277  H     H_    0.787311 0.595374 0.552571 0.000000
H278  H     H_    0.819273 0.627081 0.503634 0.000000
H279  H     H_    0.760502 0.642066 0.461678 0.000000
H280  H     H_    0.670049 0.620036 0.467642 0.000000
C253  C     C_3   0.405317 0.656989 0.523698 0.000000
N85   N     N_3   0.396691 0.636049 0.492691 0.000000
C254  C     C_3   0.439040 0.607385 0.480189 0.000000
C255  C     C_R   0.454224 0.565193 0.498676 0.000000
N86   N     N_R   0.421066 0.525333 0.504136 0.000000
C256  C     C_R   0.452772 0.486672 0.508417 0.000000
C257  C     C_R   0.441137 0.435660 0.510068 0.000000
C258  C     C_R   0.479926 0.401524 0.509489 0.000000
C259  C     C_R   0.529575 0.418186 0.506526 0.000000
C260  C     C_R   0.540743 0.469350 0.503642 0.000000
C261  C     C_R   0.501845 0.502997 0.505816 0.000000
N87   N     N_R   0.504607 0.552875 0.500060 0.000000
H281  H     H_    0.431652 0.689198 0.523653 0.000000
H282  H     H_    0.371148 0.675532 0.532326 0.000000
H283  H     H_    0.417417 0.627888 0.539542 0.000000
H284  H     H_    0.365417 0.611652 0.492422 0.000000
H285  H     H_    0.426733 0.589334 0.458263 0.000000
H286  H     H_    0.472886 0.630854 0.475977 0.000000
H287  H     H_    0.403415 0.421192 0.509680 0.000000
H288  H     H_    0.471093 0.361179 0.509504 0.000000
H289  H     H_    0.559355 0.390834 0.504893 0.000000
H290  H     H_    0.578909 0.482324 0.499062 0.000000
C262  C     C_3   0.370949 0.414740 0.406267 0.000000
N88   N     N_3   0.338454 0.456734 0.414253 0.000000
C263  C     C_3   0.367706 0.502553 0.423206 0.000000
C264  C     C_R   0.331370 0.542570 0.432411 0.000000
N89   N     N_R   0.294613 0.553801 0.411121 0.000000
C265  C     C_R   0.252033 0.544389 0.427422 0.000000
C266  C     C_R   0.207128 0.524115 0.416347 0.000000
C267  C     C_R   0.169914 0.510657 0.437011 0.000000
C268  C     C_R   0.179456 0.512949 0.468256 0.000000
C269  C     C_R   0.227414 0.525247 0.478775 0.000000
C270  C     C_R   0.263019 0.539683 0.457736 0.000000
N90   N     N_R   0.313020 0.539229 0.461943 0.000000
H291  H     H_    0.350253 0.386995 0.390896 0.000000
H292  H     H_    0.404951 0.428940 0.394503 0.000000
H293  H     H_    0.380693 0.394784 0.427186 0.000000
H294  H     H_    0.316119 0.463410 0.395411 0.000000
H295  H     H_    0.391638 0.494765 0.443108 0.000000
H296  H     H_    0.391110 0.513882 0.404100 0.000000
H297  H     H_    0.202481 0.513978 0.392384 0.000000
H298  H     H_    0.133993 0.495681 0.428655 0.000000
H299  H     H_    0.150662 0.500730 0.484112 0.000000
H300  H     H_    0.237297 0.520748 0.502491 0.000000
C271  C     C_3   0.320735 0.983754 0.706787 0.000000
N91   N     N_3   0.350035 0.008120 0.683460 0.000000
C272  C     C_3   0.318896 0.045750 0.670123 0.000000
C273  C     C_R   0.352493 0.082033 0.655409 0.000000
N92   N     N_R   0.398987 0.090097 0.668443 0.000000
C274  C     C_R   0.427914 0.101475 0.644235 0.000000
C275  C     C_R   0.479425 0.101400 0.642681 0.000000
C276  C     C_R   0.502286 0.107490 0.614519 0.000000
C277  C     C_R   0.473423 0.107925 0.588194 0.000000
C278  C     C_R   0.421516 0.103621 0.590007 0.000000
C279  C     C_R   0.399367 0.103154 0.618429 0.000000
N93   N     N_R   0.350470 0.092151 0.624512 0.000000
H301  H     H_    0.299605 0.011480 0.720944 0.000000
H302  H     H_    0.293533 0.956459 0.695538 0.000000
H303  H     H_    0.346518 0.964910 0.722437 0.000000
H304  H     H_    0.357058 0.980190 0.666522 0.000000
H305  H     H_    0.291741 0.027595 0.654234 0.000000
H306  H     H_    0.300246 0.066195 0.688232 0.000000
H307  H     H_    0.501156 0.091734 0.662103 0.000000
H308  H     H_    0.542873 0.108755 0.612640 0.000000
H309  H     H_    0.491653 0.109127 0.566054 0.000000
H310  H     H_    0.398999 0.099143 0.569537 0.000000
C280  C     C_3   0.393891 0.210087 0.520883 0.000000
N94   N     N_3   0.404374 0.185297 0.549342 0.000000
C281  C     C_3   0.376642 0.208245 0.575133 0.000000
C282  C     C_R   0.321732 0.199830 0.571952 0.000000
N95   N     N_R   0.296205 0.238961 0.559527 0.000000
C283  C     C_R   0.266123 0.213535 0.538733 0.000000
C284  C     C_R   0.230229 0.232765 0.520029 0.000000
C285  C     C_R   0.200071 0.198862 0.502803 0.000000
C286  C     C_R   0.204525 0.146708 0.505497 0.000000
C287  C     C_R   0.238980 0.128039 0.525638 0.000000
C288  C     C_R   0.269412 0.162056 0.541802 0.000000
N96   N     N_R   0.301638 0.151826 0.564374 0.000000
H311  H     H_    0.358725 0.194051 0.510409 0.000000
H312  H     H_    0.391499 0.251860 0.524610 0.000000
H313  H     H_    0.425113 0.202414 0.504531 0.000000
H314  H     H_    0.442587 0.192343 0.553865 0.000000
H315  H     H_    0.390382 0.195349 0.597001 0.000000
H316  H     H_    0.382882 0.248774 0.574609 0.000000
H317  H     H_    0.224919 0.273030 0.519002 0.000000
H318  H     H_    0.171897 0.213145 0.487737 0.000000
H319  H     H_    0.179725 0.120633 0.492616 0.000000
H320  H     H_    0.240309 0.088318 0.529843 0.000000
C289  C     C_3   0.213163 0.204627 0.602351 0.000000
N97   N     N_3   0.168456 0.180174 0.613037 0.000000
C290  C     C_3   0.165358 0.132751 0.595813 0.000000
C291  C     C_R   0.184786 0.094338 0.614807 0.000000
N98   N     N_R   0.151519 0.068868 0.633243 0.000000
C292  C     C_R   0.172175 0.023062 0.633247 0.000000
C293  C     C_R   0.152527 0.981459 0.646118 0.000000
C294  C     C_R   0.175804 0.936149 0.640378 0.000000
C295  C     C_R   0.220813 0.934445 0.624453 0.000000
C296  C     C_R   0.241281 0.977573 0.612418 0.000000
C297  C     C_R   0.215909 0.021828 0.617097 0.000000
N99   N     N_R   0.227338 0.067740 0.606429 0.000000
H321  H     H_    0.245367 0.180270 0.606803 0.000000
H322  H     H_    0.205738 0.212608 0.578832 0.000000
H323  H     H_    0.220067 0.241656 0.613582 0.000000
H324  H     H_    0.173429 0.171246 0.635689 0.000000
H325  H     H_    0.126170 0.121532 0.590234 0.000000
H326  H     H_    0.186688 0.133419 0.574397 0.000000
H327  H     H_    0.119533 0.984804 0.660215 0.000000
H328  H     H_    0.158080 0.901855 0.648122 0.000000
H329  H     H_    0.239467 0.898936 0.620621 0.000000
H330  H     H_    0.274622 0.974983 0.598868 0.000000
C298  C     C_3   0.097344 0.462259 0.573139 0.000000
N100  N     N_3   0.064586 0.432399 0.592611 0.000000
C299  C     C_3   0.059315 0.460108 0.621916 0.000000
C300  C     C_R   0.024260 0.431112 0.642078 0.000000
N101  N     N_R   0.975652 0.448742 0.645954 0.000000
C301  C     C_R   0.948330 0.405019 0.646021 0.000000
C302  C     C_R   0.896952 0.399389 0.642710 0.000000
C303  C     C_R   0.876255 0.350697 0.640188 0.000000
C304  C     C_R   0.907187 0.308940 0.639573 0.000000
C305  C     C_R   0.958944 0.315509 0.641602 0.000000
C306  C     C_R   0.979058 0.363938 0.645529 0.000000
N102  N     N_R   0.028351 0.378776 0.645242 0.000000
H331  H     H_    0.099715 0.442998 0.550158 0.000000
H332  H     H_    0.081758 0.500630 0.570554 0.000000
H333  H     H_    0.135681 0.465547 0.583210 0.000000
H334  H     H_    0.082615 0.398406 0.596269 0.000000
H335  H     H_    0.096397 0.468374 0.632289 0.000000
H336  H     H_    0.041776 0.496915 0.617619 0.000000
H337  H     H_    0.872999 0.431955 0.642437 0.000000
H338  H     H_    0.835901 0.345192 0.637954 0.000000
H339  H     H_    0.890872 0.270972 0.636603 0.000000
H340  H     H_    0.982270 0.283270 0.638840 0.000000
C307  C     C_3   0.135171 0.337970 0.518859 0.000000
N103  N     N_3   0.169873 0.341272 0.544590 0.000000
C308  C     C_3   0.152298 0.305767 0.567198 0.000000
C309  C     C_R   0.177288 0.319093 0.596980 0.000000
N104  N     N_R   0.228711 0.332341 0.599149 0.000000
C310  C     C_R   0.227589 0.367809 0.622351 0.000000
C311  C     C_R   0.265421 0.397931 0.634168 0.000000
C312  C     C_R   0.252929 0.442709 0.648852 0.000000
C313  C     C_R   0.204451 0.449822 0.658318 0.000000
C314  C     C_R   0.168385 0.412542 0.653290 0.000000
C315  C     C_R   0.180478 0.373936 0.633277 0.000000
N105  N     N_R   0.148291 0.340524 0.620289 0.000000
H341  H     H_    0.151119 0.360142 0.499876 0.000000
H342  H     H_    0.129623 0.297651 0.510847 0.000000
H343  H     H_    0.098365 0.353989 0.525812 0.000000
H344  H     H_    0.168023 0.378023 0.554453 0.000000
H345  H     H_    0.111181 0.310041 0.570620 0.000000
H346  H     H_    0.158742 0.266422 0.559034 0.000000
H347  H     H_    0.303466 0.389489 0.630833 0.000000
H348  H     H_    0.280963 0.471639 0.654107 0.000000
H349  H     H_    0.196662 0.482889 0.671597 0.000000
H350  H     H_    0.130924 0.416055 0.662535 0.000000
C316  C     C_3   0.998831 0.390138 0.734844 0.000000
N106  N     N_3   0.047459 0.387247 0.719901 0.000000
C317  C     C_3   0.080733 0.359749 0.739190 0.000000
C318  C     C_R   0.128278 0.352086 0.722976 0.000000
N107  N     N_R   0.126797 0.334177 0.692702 0.000000
C319  C     C_R   0.167546 0.305530 0.691584 0.000000
C320  C     C_R   0.180009 0.271484 0.668978 0.000000
C321  C     C_R   0.221686 0.244044 0.673574 0.000000
C322  C     C_R   0.245611 0.245987 0.700744 0.000000
C323  C     C_R   0.230510 0.276312 0.724115 0.000000
C324  C     C_R   0.193093 0.308459 0.718249 0.000000
N108  N     N_R   0.171485 0.339541 0.738735 0.000000
H351  H     H_    0.969657 0.373287 0.719171 0.000000
H352  H     H_    0.998409 0.369391 0.756460 0.000000
H353  H     H_    0.991241 0.430475 0.740174 0.000000
H354  H     H_    0.062059 0.423735 0.716837 0.000000
H355  H     H_    0.087203 0.378062 0.761955 0.000000
H356  H     H_    0.064353 0.321442 0.742286 0.000000
H357  H     H_    0.158738 0.265375 0.648506 0.000000
H358  H     H_    0.236660 0.218664 0.656825 0.000000
H359  H     H_    0.277006 0.223457 0.702931 0.000000
H360  H     H_    0.247620 0.272370 0.745873 0.000000
C325  C     C_3   0.019349 0.767075 0.199192 0.000000
N109  N     N_3   0.972276 0.750403 0.213177 0.000000
C326  C     C_3   0.932313 0.755394 0.191096 0.000000
C327  C     C_R   0.895452 0.795271 0.200605 0.000000
N110  N     N_R   0.845657 0.782535 0.206213 0.000000
C328  C     C_R   0.825927 0.828633 0.213112 0.000000
C329  C     C_R   0.777528 0.842372 0.219357 0.000000
C330  C     C_R   0.770945 0.891371 0.231440 0.000000
C331  C     C_R   0.810512 0.923396 0.239160 0.000000
C332  C     C_R   0.857367 0.909567 0.230482 0.000000
C333  C     C_R   0.862309 0.865060 0.213667 0.000000
N111  N     N_R   0.904994 0.847329 0.202024 0.000000
H361  H     H_    0.050243 0.766396 0.215934 0.000000
H362  H     H_    0.029304 0.741657 0.179414 0.000000
H363  H     H_    0.016017 0.806269 0.191575 0.000000
H364  H     H_    0.964487 0.773717 0.232249 0.000000
H365  H     H_    0.948264 0.762954 0.168939 0.000000
H366  H     H_    0.912191 0.718489 0.188438 0.000000
H367  H     H_    0.746225 0.816128 0.216401 0.000000
H368  H     H_    0.735594 0.905710 0.236739 0.000000
H369  H     H_    0.804441 0.959493 0.251203 0.000000
H370  H     H_    0.889137 0.931894 0.238526 0.000000
C334  C     C_3   0.825044 0.561858 0.122269 0.000000
N112  N     N_3   0.839593 0.603362 0.143142 0.000000
C335  C     C_3   0.837917 0.585378 0.173867 0.000000
C336  C     C_R   0.872920 0.615055 0.193672 0.000000
N113  N     N_R   0.911435 0.589948 0.207171 0.000000
C337  C     C_R   0.913013 0.611932 0.235413 0.000000
C338  C     C_R   0.937538 0.595015 0.260494 0.000000
C339  C     C_R   0.929726 0.620021 0.288502 0.000000
C340  C     C_R   0.897390 0.660699 0.290794 0.000000
C341  C     C_R   0.872297 0.676206 0.265200 0.000000
C342  C     C_R   0.880692 0.651264 0.237662 0.000000
N114  N     N_R   0.855181 0.655460 0.211210 0.000000
H371  H     H_    0.858777 0.544093 0.112695 0.000000
H372  H     H_    0.800920 0.533617 0.133887 0.000000
H373  H     H_    0.804816 0.577664 0.103172 0.000000
H374  H     H_    0.813808 0.632119 0.141310 0.000000
H375  H     H_    0.800038 0.588711 0.183758 0.000000
H376  H     H_    0.848689 0.545478 0.174722 0.000000
H377  H     H_    0.962499 0.563527 0.258487 0.000000
H378  H     H_    0.948802 0.607747 0.308666 0.000000
H379  H     H_    0.890670 0.679485 0.312853 0.000000
H380  H     H_    0.844458 0.704344 0.267370 0.000000
C343  C     C_3   0.769640 0.577243 0.257215 0.000000
N115  N     N_3   0.740152 0.621996 0.264773 0.000000
C344  C     C_3   0.714345 0.637198 0.237277 0.000000
C345  C     C_R   0.709796 0.693156 0.237940 0.000000
N116  N     N_R   0.676620 0.714900 0.258332 0.000000
C346  C     C_R   0.706562 0.749409 0.274232 0.000000
C347  C     C_R   0.698248 0.772976 0.302646 0.000000
C348  C     C_R   0.735498 0.804310 0.315605 0.000000
C349  C     C_R   0.781626 0.809503 0.301233 0.000000
C350  C     C_R   0.791030 0.782359 0.274241 0.000000
C351  C     C_R   0.752558 0.752685 0.260947 0.000000
N117  N     N_R   0.754289 0.719967 0.236346 0.000000
H381  H     H_    0.784558 0.562525 0.278704 0.000000
H382  H     H_    0.746091 0.547467 0.245190 0.000000
H383  H     H_    0.801667 0.587050 0.242325 0.000000
H384  H     H_    0.765432 0.650508 0.272555 0.000000
H385  H     H_    0.738356 0.626899 0.217670 0.000000
H386  H     H_    0.676330 0.619011 0.236407 0.000000
H387  H     H_    0.665030 0.765478 0.315926 0.000000
H388  H     H_    0.729161 0.823344 0.337635 0.000000
H389  H     H_    0.811210 0.833000 0.311863 0.000000
H390  H     H_    0.828457 0.784268 0.264775 0.000000
C352  C     C_3   0.683363 0.570430 0.177720 0.000000
N118  N     N_3   0.717554 0.607949 0.165004 0.000000
C353  C     C_3   0.691439 0.653566 0.157831 0.000000
C354  C     C_R   0.727134 0.689842 0.143669 0.000000
N119  N     N_R   0.767988 0.708954 0.160657 0.000000
C355  C     C_R   0.782331 0.747762 0.144284 0.000000
C356  C     C_R   0.828474 0.769739 0.144603 0.000000
C357  C     C_R   0.832659 0.817183 0.133760 0.000000
C358  C     C_R   0.792973 0.835333 0.117995 0.000000
C359  C     C_R   0.754223 0.802473 0.108169 0.000000
C360  C     C_R   0.749879 0.756429 0.121727 0.000000
N120  N     N_R   0.717599 0.716141 0.116876 0.000000
H391  H     H_    0.704517 0.547257 0.193533 0.000000
H392  H     H_    0.653018 0.589178 0.190747 0.000000
H393  H     H_    0.667062 0.545365 0.159529 0.000000
H394  H     H_    0.735640 0.592947 0.145965 0.000000
H395  H     H_    0.658495 0.646586 0.143377 0.000000
H396  H     H_    0.678492 0.670232 0.179642 0.000000
H397  H     H_    0.859583 0.749709 0.153029 0.000000
H398  H     H_    0.866088 0.839745 0.137635 0.000000
H399  H     H_    0.796838 0.873078 0.110267 0.000000
H400  H     H_    0.732470 0.811192 0.088875 0.000000
C361  C     C_3   0.568904 0.594440 0.151349 0.000000
N121  N     N_3   0.553929 0.641645 0.138813 0.000000
C362  C     C_3   0.560650 0.641910 0.105952 0.000000
C363  C     C_R   0.560683 0.696069 0.098723 0.000000
N122  N     N_R   0.523866 0.727149 0.110144 0.000000
C364  C     C_R   0.542049 0.773927 0.105235 0.000000
C365  C     C_R   0.521319 0.819818 0.113134 0.000000
C366  C     C_R   0.550707 0.862904 0.111115 0.000000
C367  C     C_R   0.601005 0.859656 0.103563 0.000000
C368  C     C_R   0.620024 0.813131 0.094604 0.000000
C369  C     C_R   0.589290 0.771077 0.094184 0.000000
N123  N     N_R   0.602146 0.722362 0.088398 0.000000
H401  H     H_    0.576514 0.601458 0.176038 0.000000
H402  H     H_    0.538311 0.566416 0.149756 0.000000
H403  H     H_    0.601554 0.579033 0.138925 0.000000
H404  H     H_    0.579420 0.669201 0.147382 0.000000
H405  H     H_    0.596821 0.625875 0.098545 0.000000
H406  H     H_    0.528994 0.620997 0.094258 0.000000
H407  H     H_    0.483461 0.824218 0.120162 0.000000
H408  H     H_    0.533613 0.898807 0.115714 0.000000
H409  H     H_    0.624861 0.893558 0.103264 0.000000
H410  H     H_    0.657526 0.810106 0.087289 0.000000
C370  C     C_3   0.452225 0.531546 0.193521 0.000000
N124  N     N_3   0.452581 0.560556 0.165998 0.000000
C371  C     C_3   0.402187 0.576896 0.160061 0.000000
C372  C     C_R   0.401231 0.602946 0.130507 0.000000
N125  N     N_R   0.428651 0.645782 0.121112 0.000000
C373  C     C_R   0.421343 0.641548 0.090200 0.000000
C374  C     C_R   0.441558 0.670608 0.067388 0.000000
C375  C     C_R   0.430618 0.656927 0.037155 0.000000
C376  C     C_R   0.399624 0.615142 0.029791 0.000000
C377  C     C_R   0.377975 0.587467 0.052752 0.000000
C378  C     C_R   0.389404 0.601653 0.082572 0.000000
N126  N     N_R   0.373424 0.579007 0.107794 0.000000
H411  H     H_    0.424600 0.499270 0.191307 0.000000
H412  H     H_    0.490314 0.516241 0.196775 0.000000
H413  H     H_    0.442971 0.556677 0.213528 0.000000
H414  H     H_    0.460800 0.534815 0.147965 0.000000
H415  H     H_    0.377703 0.542376 0.156938 0.000000
H416  H     H_    0.385562 0.598136 0.179210 0.000000
H417  H     H_    0.464981 0.703499 0.071871 0.000000
H418  H     H_    0.445883 0.679570 0.019062 0.000000
H419  H     H_    0.391478 0.604889 0.006071 0.000000
H420  H     H_    0.353870 0.554981 0.047117 0.000000
C379  C     C_3   0.380015 0.797974 0.038817 0.000000
N127  N     N_3   0.359942 0.809350 0.069379 0.000000
C380  C     C_3   0.387053 0.778429 0.089740 0.000000
C381  C     C_R   0.387472 0.798073 0.121961 0.000000
N128  N     N_R   0.363228 0.840779 0.134985 0.000000
C382  C     C_R   0.380692 0.839687 0.164344 0.000000
C383  C     C_R   0.367305 0.867594 0.190505 0.000000
C384  C     C_R   0.403373 0.874706 0.212930 0.000000
C385  C     C_R   0.450140 0.854717 0.207803 0.000000
C386  C     C_R   0.454996 0.814399 0.187166 0.000000
C387  C     C_R   0.416755 0.804551 0.166906 0.000000
N129  N     N_R   0.419398 0.774543 0.141623 0.000000
H421  H     H_    0.350872 0.804277 0.021408 0.000000
H422  H     H_    0.413679 0.822653 0.034736 0.000000
H423  H     H_    0.391166 0.757767 0.036340 0.000000
H424  H     H_    0.322368 0.796898 0.069780 0.000000
H425  H     H_    0.370501 0.739382 0.089089 0.000000
H426  H     H_    0.426902 0.777659 0.082277 0.000000
H427  H     H_    0.335503 0.891480 0.191912 0.000000
H428  H     H_    0.398066 0.902120 0.231634 0.000000
H429  H     H_    0.482262 0.869210 0.220863 0.000000
H430  H     H_    0.490591 0.797884 0.183670 0.000000
C388  C     C_3   0.659771 0.794676 0.169018 0.000000
N130  N     N_3   0.632163 0.749443 0.178194 0.000000
C389  C     C_3   0.580394 0.762827 0.183569 0.000000
C390  C     C_R   0.549635 0.719786 0.195342 0.000000
N131  N     N_R   0.504879 0.705877 0.180475 0.000000
C391  C     C_R   0.478348 0.685677 0.202651 0.000000
C392  C     C_R   0.428499 0.675415 0.201552 0.000000
C393  C     C_R   0.406123 0.654716 0.226715 0.000000
C394  C     C_R   0.433501 0.650770 0.253119 0.000000
C395  C     C_R   0.482598 0.668642 0.254356 0.000000
C396  C     C_R   0.505432 0.683761 0.228543 0.000000
N132  N     N_R   0.552510 0.703398 0.225311 0.000000
H431  H     H_    0.662505 0.793978 0.144042 0.000000
H432  H     H_    0.641041 0.830070 0.176815 0.000000
H433  H     H_    0.698342 0.794142 0.178119 0.000000
H434  H     H_    0.647283 0.738291 0.198638 0.000000
H435  H     H_    0.576740 0.796053 0.199607 0.000000
H436  H     H_    0.564364 0.773611 0.161808 0.000000
H437  H     H_    0.409091 0.681096 0.180643 0.000000
H438  H     H_    0.367975 0.640194 0.225611 0.000000
H439  H     H_    0.415910 0.634678 0.272980 0.000000
H440  H     H_    0.503963 0.666816 0.274193 0.000000
C397  C     C_3   0.472049 0.506349 0.271706 0.000000
N133  N     N_3   0.481099 0.560772 0.277306 0.000000
C398  C     C_3   0.534308 0.572395 0.272543 0.000000
C399  C     C_R   0.556981 0.603872 0.299038 0.000000
N134  N     N_R   0.588445 0.645832 0.294421 0.000000
C400  C     C_R   0.613568 0.650444 0.321096 0.000000
C401  C     C_R   0.663371 0.664640 0.324576 0.000000
C402  C     C_R   0.687424 0.656500 0.351741 0.000000
C403  C     C_R   0.660710 0.636213 0.375549 0.000000
C404  C     C_R   0.611286 0.620728 0.371189 0.000000
C405  C     C_R   0.592039 0.620808 0.342218 0.000000
N135  N     N_R   0.558072 0.587917 0.328938 0.000000
H441  H     H_    0.485758 0.493917 0.248712 0.000000
H442  H     H_    0.491127 0.484872 0.289221 0.000000
H443  H     H_    0.431181 0.497486 0.273278 0.000000
H444  H     H_    0.472084 0.570013 0.299994 0.000000
H445  H     H_    0.553833 0.536931 0.268296 0.000000
H446  H     H_    0.540049 0.592069 0.250879 0.000000
H447  H     H_    0.686045 0.673248 0.305474 0.000000
H448  H     H_    0.727206 0.665547 0.354237 0.000000
H449  H     H_    0.679307 0.629914 0.396924 0.000000
H450  H     H_    0.588576 0.610628 0.390256 0.000000
C406  C     C_3   0.480080 0.688049 0.333582 0.000000
N136  N     N_3   0.506952 0.723458 0.314944 0.000000
C407  C     C_3   0.535992 0.757435 0.334822 0.000000
C408  C     C_R   0.566970 0.789769 0.316231 0.000000
N137  N     N_R   0.584888 0.772273 0.288538 0.000000
C409  C     C_R   0.604998 0.814592 0.277574 0.000000
C410  C     C_R   0.628412 0.818562 0.250693 0.000000
C411  C     C_R   0.651675 0.863513 0.244965 0.000000
C412  C     C_R   0.654431 0.902446 0.267485 0.000000
C413  C     C_R   0.629693 0.897489 0.294683 0.000000
C414  C     C_R   0.603153 0.853825 0.298240 0.000000
N138  N     N_R   0.575769 0.841279 0.322367 0.000000
H451  H     H_    0.460780 0.658101 0.319193 0.000000
H452  H     H_    0.506522 0.670399 0.349127 0.000000
H453  H     H_    0.451404 0.709058 0.346528 0.000000
H454  H     H_    0.479481 0.744572 0.304901 0.000000
H455  H     H_    0.510809 0.783458 0.346308 0.000000
H456  H     H_    0.560270 0.735638 0.349852 0.000000
H457  H     H_    0.630789 0.786569 0.235529 0.000000
H458  H     H_    0.669516 0.866141 0.223048 0.000000
H459  H     H_    0.676643 0.936442 0.264240 0.000000
H460  H     H_    0.634511 0.924348 0.313402 0.000000
C415  C     C_3   0.199711 0.841673 0.490328 0.000000
N139  N     N_3   0.250539 0.843630 0.502793 0.000000
C416  C     C_3   0.260443 0.794868 0.515865 0.000000
C417  C     C_R   0.310547 0.797122 0.531748 0.000000
N140  N     N_R   0.347106 0.834568 0.526270 0.000000
C418  C     C_R   0.379235 0.827784 0.549650 0.000000
C419  C     C_R   0.421247 0.855173 0.558194 0.000000
C420  C     C_R   0.444873 0.846249 0.585508 0.000000
C421  C     C_R   0.431769 0.803079 0.600835 0.000000
C422  C     C_R   0.396071 0.770309 0.587758 0.000000
C423  C     C_R   0.365555 0.787743 0.565876 0.000000
N141  N     N_R   0.321246 0.767915 0.556829 0.000000
H461  H     H_    0.195024 0.874212 0.475267 0.000000
H462  H     H_    0.193097 0.805744 0.476617 0.000000
H463  H     H_    0.171731 0.844087 0.509192 0.000000
H464  H     H_    0.251721 0.871400 0.520514 0.000000
H465  H     H_    0.229282 0.782985 0.530658 0.000000
H466  H     H_    0.259095 0.764634 0.498308 0.000000
H467  H     H_    0.436860 0.880833 0.543275 0.000000
H468  H     H_    0.477552 0.868938 0.592700 0.000000
H469  H     H_    0.454350 0.791674 0.619848 0.000000
H470  H     H_    0.393487 0.731133 0.592948 0.000000
C424  C     C_3   0.461846 0.728756 0.462221 0.000000
N142  N     N_3   0.483866 0.777442 0.470110 0.000000
C425  C     C_3   0.454677 0.802049 0.493345 0.000000
C426  C     C_R   0.472314 0.854606 0.492648 0.000000
N143  N     N_R   0.522524 0.869340 0.492743 0.000000
C427  C     C_R   0.519389 0.920000 0.489815 0.000000
C428  C     C_R   0.553278 0.956083 0.500981 0.000000
C429  C     C_R   0.541436 0.006933 0.499197 0.000000
C430  C     C_R   0.494565 0.020511 0.488553 0.000000
C431  C     C_R   0.457796 0.983336 0.482399 0.000000
C432  C     C_R   0.470930 0.933271 0.484312 0.000000
N144  N     N_R   0.439739 0.893080 0.488257 0.000000
H471  H     H_    0.462580 0.708107 0.482856 0.000000
H472  H     H_    0.423010 0.732741 0.454498 0.000000
H473  H     H_    0.485247 0.709182 0.444625 0.000000
H474  H     H_    0.479890 0.801137 0.452391 0.000000
H475  H     H_    0.414461 0.799245 0.488505 0.000000
H476  H     H_    0.458946 0.785584 0.515611 0.000000
H477  H     H_    0.586866 0.944914 0.512588 0.000000
H478  H     H_    0.568235 0.036187 0.507064 0.000000
H479  H     H_    0.485257 0.060283 0.487896 0.000000
H480  H     H_    0.419515 0.993643 0.478358 0.000000
C433  C     C_3   0.319983 0.729471 0.459914 0.000000
N145  N     N_3   0.302687 0.770997 0.442178 0.000000
C434  C     C_3   0.343629 0.804037 0.433050 0.000000
C435  C     C_R   0.324006 0.855389 0.430610 0.000000
N146  N     N_R   0.307425 0.871944 0.402819 0.000000
C436  C     C_R   0.302123 0.922158 0.408947 0.000000
C437  C     C_R   0.293931 0.958830 0.387999 0.000000
C438  C     C_R   0.297128 0.009348 0.398064 0.000000
C439  C     C_R   0.311019 0.022252 0.428047 0.000000
C440  C     C_R   0.321751 0.984875 0.448341 0.000000
C441  C     C_R   0.315609 0.934789 0.438700 0.000000
N147  N     N_R   0.329592 0.893171 0.453591 0.000000
H481  H     H_    0.287066 0.704970 0.465026 0.000000
H482  H     H_    0.344508 0.705302 0.446420 0.000000
H483  H     H_    0.339788 0.743555 0.480925 0.000000
H484  H     H_    0.277275 0.793146 0.454425 0.000000
H485  H     H_    0.373983 0.805608 0.449599 0.000000
H486  H     H_    0.357713 0.790924 0.410391 0.000000
H487  H     H_    0.287173 0.948768 0.364115 0.000000
H488  H     H_    0.290751 0.039017 0.382168 0.000000
H489  H     H_    0.315364 0.061930 0.435300 0.000000
H490  H     H_    0.336259 0.995319 0.470636 0.000000
C442  C     C_3   0.178222 0.988474 0.519977 0.000000
N148  N     N_3   0.225143 0.993586 0.537012 0.000000
C443  C     C_3   0.266963 0.990290 0.515586 0.000000
C444  C     C_R   0.315237 0.992774 0.532939 0.000000
N149  N     N_R   0.321536 0.021502 0.560051 0.000000
C445  C     C_R   0.364185 0.002915 0.570500 0.000000
C446  C     C_R   0.376382 0.996725 0.600276 0.000000
C447  C     C_R   0.425107 0.985922 0.606970 0.000000
C448  C     C_R   0.457928 0.976536 0.583299 0.000000
C449  C     C_R   0.438931 0.968809 0.554159 0.000000
C450  C     C_R   0.387901 0.974930 0.549157 0.000000
N150  N     N_R   0.355803 0.962009 0.525634 0.000000
H491  H     H_    0.146118 0.992935 0.536116 0.000000
H492  H     H_    0.176629 0.018330 0.502786 0.000000
H493  H     H_    0.175283 0.950281 0.508359 0.000000
H494  H     H_    0.227257 0.962479 0.550832 0.000000
H495  H     H_    0.264354 0.953898 0.501964 0.000000
H496  H     H_    0.265946 0.022299 0.499892 0.000000
H497  H     H_    0.348980 0.001210 0.617845 0.000000
H498  H     H_    0.437690 0.988390 0.630218 0.000000
H499  H     H_    0.497267 0.970268 0.587808 0.000000
H500  H     H_    0.465096 0.955907 0.537765 0.000000
C451  C     C_3   0.550614 0.656878 0.007603 0.000000
N151  N     N_3   0.604457 0.657610 0.001569 0.000000
C452  C     C_3   0.623701 0.609309 0.010607 0.000000
C453  C     C_R   0.675416 0.615437 0.023212 0.000000
N152  N     N_R   0.710258 0.577824 0.016032 0.000000
C454  C     C_R   0.727918 0.568273 0.043745 0.000000
C455  C     C_R   0.751121 0.524531 0.050497 0.000000
C456  C     C_R   0.745535 0.506207 0.078950 0.000000
C457  C     C_R   0.716528 0.532863 0.099699 0.000000
C458  C     C_R   0.698918 0.580050 0.093472 0.000000
C459  C     C_R   0.707357 0.598929 0.065662 0.000000
N153  N     N_R   0.678270 0.633429 0.053376 0.000000
H501  H     H_    0.533121 0.688169 0.995424 0.000000
H502  H     H_    0.533332 0.620159 0.999040 0.000000
H503  H     H_    0.543793 0.662521 0.032560 0.000000
H504  H     H_    0.608332 0.658829 0.977928 0.000000
H505  H     H_    0.599619 0.594251 0.029153 0.000000
H506  H     H_    0.622601 0.580699 0.991637 0.000000
H507  H     H_    0.766277 0.500517 0.033187 0.000000
H508  H     H_    0.759448 0.469118 0.083780 0.000000
H509  H     H_    0.706498 0.516395 0.120694 0.000000
H510  H     H_    0.671197 0.596418 0.107774 0.000000
C460  C     C_3   0.541105 0.801808 0.025326 0.000000
N154  N     N_3   0.591185 0.781021 0.027872 0.000000
C461  C     C_3   0.627938 0.822573 0.025941 0.000000
C462  C     C_R   0.680183 0.803813 0.027091 0.000000
N155  N     N_R   0.693539 0.757031 0.038494 0.000000
C463  C     C_R   0.733168 0.745500 0.020020 0.000000
C464  C     C_R   0.760314 0.701881 0.017928 0.000000
C465  C     C_R   0.804195 0.701932 0.001114 0.000000
C466  C     C_R   0.817093 0.742034 0.983176 0.000000
C467  C     C_R   0.785691 0.782817 0.982157 0.000000
C468  C     C_R   0.745798 0.784725 0.002087 0.000000
N156  N     N_R   0.714597 0.823391 0.006767 0.000000
H511  H     H_    0.536227 0.817390 0.002320 0.000000
H512  H     H_    0.512408 0.771086 0.028582 0.000000
H513  H     H_    0.535579 0.832305 0.043185 0.000000
H514  H     H_    0.596316 0.757227 0.008564 0.000000
H515  H     H_    0.622915 0.840505 0.003856 0.000000
H516  H     H_    0.623000 0.852183 0.043752 0.000000
H517  H     H_    0.753727 0.671613 0.032812 0.000000
H518  H     H_    0.830114 0.671906 0.003781 0.000000
H519  H     H_    0.851713 0.741244 0.970109 0.000000
H520  H     H_    0.792720 0.812481 0.966339 0.000000
C469  C     C_3   0.520478 0.290497 0.355914 0.000000
N157  N     N_3   0.517154 0.328991 0.333056 0.000000
C470  C     C_3   0.547029 0.373058 0.343983 0.000000
C471  C     C_R   0.555521 0.410016 0.319289 0.000000
N158  N     N_R   0.574489 0.395860 0.290765 0.000000
C472  C     C_R   0.593583 0.440333 0.281191 0.000000
C473  C     C_R   0.617080 0.450349 0.254135 0.000000
C474  C     C_R   0.646436 0.494438 0.252919 0.000000
C475  C     C_R   0.653089 0.525273 0.278975 0.000000
C476  C     C_R   0.626692 0.515314 0.305006 0.000000
C477  C     C_R   0.591839 0.476249 0.303695 0.000000
N159  N     N_R   0.561701 0.461573 0.326203 0.000000
H521  H     H_    0.557865 0.272534 0.354507 0.000000
H522  H     H_    0.514966 0.308076 0.379161 0.000000
H523  H     H_    0.490635 0.260853 0.351665 0.000000
H524  H     H_    0.479558 0.339639 0.332459 0.000000
H525  H     H_    0.527958 0.392479 0.363618 0.000000
H526  H     H_    0.584347 0.360399 0.351682 0.000000
H527  H     H_    0.616179 0.423032 0.235466 0.000000
H528  H     H_    0.667730 0.502784 0.232729 0.000000
H529  H     H_    0.677922 0.557728 0.279365 0.000000
H530  H     H_    0.634633 0.537243 0.325700 0.000000
C478  C     C_3   0.486978 0.414429 0.434467 0.000000
N160  N     N_3   0.524254 0.455094 0.438438 0.000000
C479  C     C_3   0.503703 0.502785 0.428515 0.000000
C480  C     C_R   0.546935 0.536598 0.421083 0.000000
N161  N     N_R   0.582632 0.548153 0.443625 0.000000
C481  C     C_R   0.625370 0.531260 0.430377 0.000000
C482  C     C_R   0.669512 0.519707 0.444543 0.000000
C483  C     C_R   0.707279 0.497943 0.426897 0.000000
C484  C     C_R   0.699185 0.485205 0.396126 0.000000
C485  C     C_R   0.652948 0.493283 0.382840 0.000000
C486  C     C_R   0.616736 0.516985 0.400433 0.000000
N162  N     N_R   0.567906 0.523838 0.393318 0.000000
H531  H     H_    0.501143 0.379581 0.444677 0.000000
H532  H     H_    0.452097 0.425923 0.446352 0.000000
H533  H     H_    0.480814 0.405797 0.409762 0.000000
H534  H     H_    0.554477 0.444776 0.424407 0.000000
H535  H     H_    0.481241 0.495134 0.407465 0.000000
H536  H     H_    0.479611 0.520070 0.446176 0.000000
H537  H     H_    0.673550 0.523548 0.468997 0.000000
H538  H     H_    0.742464 0.488551 0.437492 0.000000
H539  H     H_    0.728213 0.466167 0.382917 0.000000
H540  H     H_    0.645104 0.477839 0.360210 0.000000
C487  C     C_3   0.396471 0.657113 0.407512 0.000000
N163  N     N_3   0.438118 0.649976 0.387131 0.000000
C488  C     C_3   0.451503 0.597841 0.386934 0.000000
C489  C     C_R   0.428928 0.567659 0.361027 0.000000
N164  N     N_R   0.377255 0.561946 0.355347 0.000000
C490  C     C_R   0.374449 0.514468 0.342555 0.000000
C491  C     C_R   0.331400 0.484791 0.338868 0.000000
C492  C     C_R   0.336366 0.433284 0.332541 0.000000
C493  C     C_R   0.383738 0.412356 0.331196 0.000000
C494  C     C_R   0.426626 0.442977 0.333958 0.000000
C495  C     C_R   0.421061 0.493903 0.339996 0.000000
N165  N     N_R   0.456724 0.527229 0.350518 0.000000
H541  H     H_    0.383074 0.695891 0.404282 0.000000
H542  H     H_    0.366966 0.627671 0.403045 0.000000
H543  H     H_    0.409404 0.654732 0.431112 0.000000
H544  H     H_    0.468528 0.668261 0.398071 0.000000
H545  H     H_    0.492890 0.596311 0.384361 0.000000
H546  H     H_    0.441355 0.581327 0.408834 0.000000
H547  H     H_    0.294654 0.499488 0.343643 0.000000
H548  H     H_    0.303141 0.408709 0.330925 0.000000
H549  H     H_    0.387091 0.371444 0.329319 0.000000
H550  H     H_    0.462944 0.426684 0.334388 0.000000
C496  C     C_3   0.466147 0.778803 0.394983 0.000000
N166  N     N_3   0.498994 0.823547 0.397651 0.000000
C497  C     C_3   0.549422 0.810134 0.406759 0.000000
C498  C     C_R   0.577591 0.857937 0.411887 0.000000
N167  N     N_R   0.574808 0.896184 0.391196 0.000000
C499  C     C_R   0.596790 0.935684 0.406422 0.000000
C500  C     C_R   0.597090 0.985260 0.397793 0.000000
C501  C     C_R   0.618629 0.022223 0.417094 0.000000
C502  C     C_R   0.636942 0.009051 0.445161 0.000000
C503  C     C_R   0.632613 0.959385 0.454355 0.000000
C504  C     C_R   0.612693 0.921965 0.434642 0.000000
N168  N     N_R   0.600267 0.871988 0.439482 0.000000
H551  H     H_    0.442995 0.780001 0.374104 0.000000
H552  H     H_    0.489634 0.744963 0.394666 0.000000
H553  H     H_    0.438527 0.778832 0.413414 0.000000
H554  H     H_    0.484774 0.847818 0.414706 0.000000
H555  H     H_    0.549410 0.788490 0.427740 0.000000
H556  H     H_    0.568942 0.788383 0.388596 0.000000
H557  H     H_    0.578588 0.995672 0.377288 0.000000
H558  H     H_    0.619520 0.061602 0.410787 0.000000
H559  H     H_    0.652198 0.038330 0.460830 0.000000
H560  H     H_    0.642286 0.952585 0.477245 0.000000
C505  C     C_3   0.454510 0.997678 0.404987 0.000000
N169  N     N_3   0.467413 0.945322 0.396858 0.000000
C506  C     C_3   0.420874 0.916034 0.390982 0.000000
C507  C     C_R   0.426028 0.881103 0.363365 0.000000
N170  N     N_R   0.469948 0.879784 0.346436 0.000000
C508  C     C_R   0.454656 0.855637 0.320424 0.000000
C509  C     C_R   0.479695 0.851989 0.293158 0.000000
C510  C     C_R   0.460630 0.818556 0.271115 0.000000
C511  C     C_R   0.411957 0.799890 0.273591 0.000000
C512  C     C_R   0.384485 0.810311 0.300044 0.000000
C513  C     C_R   0.406888 0.838169 0.322908 0.000000
N171  N     N_R   0.386161 0.853886 0.349428 0.000000
H561  H     H_    0.488382 0.018281 0.414374 0.000000
H562  H     H_    0.441507 0.017379 0.384586 0.000000
H563  H     H_    0.424460 0.998353 0.422628 0.000000
H564  H     H_    0.483851 0.931454 0.416393 0.000000
H565  H     H_    0.411305 0.894151 0.411330 0.000000
H566  H     H_    0.391163 0.942833 0.385824 0.000000
H567  H     H_    0.512909 0.874328 0.288674 0.000000
H568  H     H_    0.484142 0.806327 0.252210 0.000000
H569  H     H_    0.396051 0.777689 0.254512 0.000000
H570  H     H_    0.346838 0.796400 0.303895 0.000000
C514  C     C_3   0.721274 0.021046 0.316185 0.000000
N172  N     N_3   0.672507 0.034955 0.304457 0.000000
C515  C     C_3   0.634421 0.024407 0.327436 0.000000
C516  C     C_R   0.584884 0.010454 0.312608 0.000000
N173  N     N_R   0.564610 0.037137 0.288387 0.000000
C517  C     C_R   0.519273 0.012969 0.285584 0.000000
C518  C     C_R   0.485131 0.011695 0.262323 0.000000
C519  C     C_R   0.436045 0.997378 0.269248 0.000000
C520  C     C_R   0.424353 0.983844 0.298665 0.000000
C521  C     C_R   0.462633 0.974106 0.318199 0.000000
C522  C     C_R   0.510815 0.980922 0.308343 0.000000
N174  N     N_R   0.552735 0.972163 0.323878 0.000000
H571  H     H_    0.751181 0.032808 0.299953 0.000000
H572  H     H_    0.728064 0.040662 0.338816 0.000000
H573  H     H_    0.722619 0.979136 0.318244 0.000000
H574  H     H_    0.664727 0.011288 0.285434 0.000000
H575  H     H_    0.646692 0.993429 0.341877 0.000000
H576  H     H_    0.629696 0.058407 0.342888 0.000000
H577  H     H_    0.496095 0.020131 0.239586 0.000000
H578  H     H_    0.406408 0.001239 0.252890 0.000000
H579  H     H_    0.386154 0.979398 0.306609 0.000000
H580  H     H_    0.454573 0.967586 0.341492 0.000000
C523  C     C_3   0.106582 0.885299 0.154932 0.000000
N175  N     N_3   0.081991 0.933032 0.160595 0.000000
C524  C     C_3   0.086156 0.944667 0.193031 0.000000
C525  C     C_R   0.066512 0.901538 0.211123 0.000000
N176  N     N_R   0.015173 0.897020 0.215883 0.000000
C526  C     C_R   0.013241 0.871288 0.242135 0.000000
C527  C     C_R   0.972527 0.861571 0.260786 0.000000
C528  C     C_R   0.979424 0.833646 0.286557 0.000000
C529  C     C_R   0.026488 0.815581 0.293334 0.000000
C530  C     C_R   0.067147 0.826631 0.274796 0.000000
C531  C     C_R   0.059924 0.855971 0.250077 0.000000
N177  N     N_R   0.095516 0.873430 0.230948 0.000000
H581  H     H_    0.080249 0.853425 0.159922 0.000000
H582  H     H_    0.118498 0.882019 0.131029 0.000000
H583  H     H_    0.140851 0.884360 0.168734 0.000000
H584  H     H_    0.044039 0.927212 0.155545 0.000000
H585  H     H_    0.125149 0.954647 0.198685 0.000000
H586  H     H_    0.063352 0.978547 0.198851 0.000000
H587  H     H_    0.936183 0.875443 0.256470 0.000000
H588  H     H_    0.947742 0.825605 0.301370 0.000000
H589  H     H_    0.031604 0.793527 0.313415 0.000000
H590  H     H_    0.103941 0.814479 0.280330 0.000000
C532  C     C_3   0.774151 0.974293 0.126890 0.000000
N178  N     N_3   0.828239 0.968923 0.129709 0.000000
C533  C     C_3   0.838565 0.952159 0.160116 0.000000
C534  C     C_R   0.866880 0.991368 0.179560 0.000000
N179  N     N_R   0.910622 0.976330 0.193780 0.000000
C535  C     C_R   0.918429 0.014258 0.214963 0.000000
C536  C     C_R   0.954526 0.016826 0.237468 0.000000
C537  C     C_R   0.951655 0.055839 0.259640 0.000000
C538  C     C_R   0.912441 0.090058 0.259425 0.000000
C539  C     C_R   0.876090 0.086373 0.236706 0.000000
C540  C     C_R   0.880796 0.049041 0.214084 0.000000
N180  N     N_R   0.848565 0.038489 0.190637 0.000000
H591  H     H_    0.753646 0.937686 0.129681 0.000000
H592  H     H_    0.760676 0.000917 0.144354 0.000000
H593  H     H_    0.765433 0.990595 0.104784 0.000000
H594  H     H_    0.846039 0.004144 0.127596 0.000000
H595  H     H_    0.804143 0.937820 0.171342 0.000000
H596  H     H_    0.862917 0.918970 0.157849 0.000000
H597  H     H_    0.983544 0.988812 0.238308 0.000000
H598  H     H_    0.979417 0.058938 0.277733 0.000000
H599  H     H_    0.910062 0.119584 0.277298 0.000000
H600  H     H_    0.845091 0.112131 0.236661 0.000000
C541  C     C_3   0.053318 0.825528 0.097986 0.000000
N181  N     N_3   0.004017 0.801307 0.094810 0.000000
C542  C     C_3   0.975350 0.810331 0.122118 0.000000
C543  C     C_R   0.953341 0.858958 0.119029 0.000000
N182  N     N_R   0.941172 0.873888 0.090285 0.000000
C544  C     C_R   0.935940 0.924331 0.095340 0.000000
C545  C     C_R   0.921258 0.959489 0.075274 0.000000
C546  C     C_R   0.933281 0.009821 0.082535 0.000000
C547  C     C_R   0.954086 0.024126 0.110878 0.000000
C548  C     C_R   0.960110 0.988496 0.132846 0.000000
C549  C     C_R   0.949137 0.938592 0.124603 0.000000
N183  N     N_R   0.956872 0.897620 0.141210 0.000000
H601  H     H_    0.074095 0.807624 0.116407 0.000000
H602  H     H_    0.075207 0.818946 0.076764 0.000000
H603  H     H_    0.049548 0.867168 0.101824 0.000000
H604  H     H_    0.008165 0.762886 0.095189 0.000000
H605  H     H_    0.944693 0.781042 0.122383 0.000000
H606  H     H_    0.000181 0.811132 0.142235 0.000000
H607  H     H_    0.905206 0.948461 0.053309 0.000000
H608  H     H_    0.928800 0.037464 0.065205 0.000000
H609  H     H_    0.965487 0.063258 0.116002 0.000000
H610  H     H_    0.977159 0.999248 0.154640 0.000000
C550  C     C_3   0.053877 0.888941 0.727832 0.000000
N184  N     N_3   0.035174 0.877847 0.697007 0.000000
C551  C     C_3   0.026968 0.823374 0.693823 0.000000
C552  C     C_R   0.013498 0.807939 0.662367 0.000000
N185  N     N_R   0.983176 0.835714 0.643928 0.000000
C553  C     C_R   0.991146 0.813625 0.616099 0.000000
C554  C     C_R   0.979727 0.832755 0.588359 0.000000
C555  C     C_R   0.996870 0.807494 0.562087 0.000000
C556  C     C_R   0.025953 0.764524 0.564048 0.000000
C557  C     C_R   0.039504 0.747318 0.592330 0.000000
C558  C     C_R   0.022069 0.773090 0.618182 0.000000
N186  N     N_R   0.038147 0.768906 0.647350 0.000000
H611  H     H_    0.061027 0.930245 0.730973 0.000000
H612  H     H_    0.025410 0.878708 0.744815 0.000000
H613  H     H_    0.088427 0.867486 0.732095 0.000000
H614  H     H_    0.064264 0.886639 0.682032 0.000000
H615  H     H_    0.062785 0.804856 0.697535 0.000000
H616  H     H_    0.997348 0.810619 0.709580 0.000000
H617  H     H_    0.961186 0.868531 0.587262 0.000000
H618  H     H_    0.988815 0.822152 0.539899 0.000000
H619  H     H_    0.039693 0.745514 0.543373 0.000000
H620  H     H_    0.064361 0.715634 0.593840 0.000000
C559  C     C_3   0.034856 0.966799 0.574956 0.000000
N187  N     N_3   0.069107 0.971927 0.600908 0.000000
C560  C     C_3   0.047112 0.946014 0.627092 0.000000
C561  C     C_R   0.018509 0.980368 0.648775 0.000000
N188  N     N_R   0.026184 0.032947 0.647905 0.000000
C562  C     C_R   0.980754 0.047994 0.638507 0.000000
C563  C     C_R   0.970708 0.092254 0.624144 0.000000
C564  C     C_R   0.925364 0.096075 0.609134 0.000000
C565  C     C_R   0.893342 0.053977 0.605900 0.000000
C566  C     C_R   0.905612 0.008895 0.618888 0.000000
C567  C     C_R   0.947060 0.008011 0.637780 0.000000
N189  N     N_R   0.968501 0.966237 0.648617 0.000000
H621  H     H_    0.048819 0.991527 0.556612 0.000000
H622  H     H_    0.033597 0.926796 0.565820 0.000000
H623  H     H_    0.996542 0.978781 0.581760 0.000000
H624  H     H_    0.076608 0.010529 0.605377 0.000000
H625  H     H_    0.019024 0.918069 0.617928 0.000000
H626  H     H_    0.074606 0.922792 0.638438 0.000000
H627  H     H_    0.998317 0.122059 0.622349 0.000000
H628  H     H_    0.917050 0.130477 0.597537 0.000000
H629  H     H_    0.860319 0.055372 0.591536 0.000000
H630  H     H_    0.885325 0.974736 0.611832 0.000000
C568  C     C_3   0.892913 0.023497 0.741344 0.000000
N190  N     N_3   0.904930 0.974581 0.753509 0.000000
C569  C     C_3   0.944889 0.949781 0.736012 0.000000
C570  C     C_R   0.931809 0.894989 0.730541 0.000000
N191  N     N_R   0.918670 0.858407 0.752139 0.000000
C571  C     C_R   0.896106 0.822534 0.732964 0.000000
C572  C     C_R   0.863169 0.784246 0.740121 0.000000
C573  C     C_R   0.832460 0.762237 0.717194 0.000000
C574  C     C_R   0.841005 0.771892 0.686965 0.000000
C575  C     C_R   0.878725 0.805637 0.679692 0.000000
C576  C     C_R   0.900661 0.834230 0.703201 0.000000
N192  N     N_R   0.924290 0.878803 0.700543 0.000000
H631  H     H_    0.858810 0.018838 0.726953 0.000000
H632  H     H_    0.884181 0.050484 0.760689 0.000000
H633  H     H_    0.924249 0.039434 0.727813 0.000000
H634  H     H_    0.872743 0.952184 0.750072 0.000000
H635  H     H_    0.948345 0.965834 0.713041 0.000000
H636  H     H_    0.981684 0.955033 0.746953 0.000000
H637  H     H_    0.855620 0.778552 0.763407 0.000000
H638  H     H_    0.801189 0.737328 0.722067 0.000000
H639  H     H_    0.818801 0.752349 0.669314 0.000000
H640  H     H_    0.888520 0.810428 0.656165 0.000000
C577  C     C_3   0.877759 0.865381 0.539186 0.000000
N193  N     N_3   0.874750 0.882173 0.571236 0.000000
C578  C     C_3   0.852766 0.840645 0.588191 0.000000
C579  C     C_R   0.832638 0.861089 0.617761 0.000000
N194  N     N_R   0.863088 0.890362 0.637749 0.000000
C580  C     C_R   0.830836 0.925384 0.648714 0.000000
C581  C     C_R   0.841687 0.967052 0.667688 0.000000
C582  C     C_R   0.807896 0.006468 0.668408 0.000000
C583  C     C_R   0.763473 0.001976 0.651698 0.000000
C584  C     C_R   0.751016 0.956942 0.635715 0.000000
C585  C     C_R   0.784931 0.918276 0.635512 0.000000
N195  N     N_R   0.782654 0.873936 0.619064 0.000000
H641  H     H_    0.839906 0.866035 0.528560 0.000000
H642  H     H_    0.903623 0.891466 0.526968 0.000000
H643  H     H_    0.892309 0.826168 0.537229 0.000000
H644  H     H_    0.850323 0.912673 0.572701 0.000000
H645  H     H_    0.820965 0.824198 0.574414 0.000000
H646  H     H_    0.881258 0.811943 0.592439 0.000000
H647  H     H_    0.877430 0.971202 0.679240 0.000000
H648  H     H_    0.816742 0.041537 0.681232 0.000000
H649  H     H_    0.738049 0.033514 0.651576 0.000000
H650  H     H_    0.718016 0.954324 0.621678 0.000000
C586  C     C_3   0.187765 0.659911 0.492101 0.000000
N196  N     N_3   0.213763 0.643418 0.518913 0.000000
C587  C     C_3   0.267778 0.646748 0.513640 0.000000
C588  C     C_R   0.293217 0.623085 0.539170 0.000000
N197  N     N_R   0.293311 0.645364 0.568309 0.000000
C589  C     C_R   0.311030 0.608444 0.584478 0.000000
C590  C     C_R   0.307772 0.603159 0.615148 0.000000
C591  C     C_R   0.338473 0.567528 0.626292 0.000000
C592  C     C_R   0.379018 0.553261 0.608008 0.000000
C593  C     C_R   0.374680 0.552257 0.576605 0.000000
C594  C     C_R   0.332175 0.572732 0.566013 0.000000
N198  N     N_R   0.318890 0.577712 0.536776 0.000000
H651  H     H_    0.146562 0.658788 0.496471 0.000000
H652  H     H_    0.199708 0.699407 0.487260 0.000000
H653  H     H_    0.196041 0.633812 0.472282 0.000000
H654  H     H_    0.204090 0.605078 0.521145 0.000000
H655  H     H_    0.277622 0.627294 0.491659 0.000000
H656  H     H_    0.280308 0.686982 0.514142 0.000000
H657  H     H_    0.287896 0.628945 0.630260 0.000000
H658  H     H_    0.338345 0.561869 0.650432 0.000000
H659  H     H_    0.412436 0.539632 0.618332 0.000000
H660  H     H_    0.403432 0.536835 0.561732 0.000000
C595  C     C_3   0.924906 0.697860 0.601836 0.000000
N199  N     N_3   0.960004 0.686266 0.625319 0.000000
C596  C     C_3   0.983858 0.640036 0.615466 0.000000
C597  C     C_R   0.013831 0.622253 0.640849 0.000000
N200  N     N_R   0.057917 0.646128 0.651864 0.000000
C598  C     C_R   0.078415 0.608019 0.666189 0.000000
C599  C     C_R   0.127151 0.605241 0.673359 0.000000
C600  C     C_R   0.143992 0.559810 0.682962 0.000000
C601  C     C_R   0.109848 0.521027 0.689856 0.000000
C602  C     C_R   0.059520 0.525411 0.683120 0.000000
C603  C     C_R   0.046807 0.567067 0.667473 0.000000
N201  N     N_R   0.004611 0.574419 0.651745 0.000000
H661  H     H_    0.907376 0.734469 0.608311 0.000000
H662  H     H_    0.944312 0.700447 0.579463 0.000000
H663  H     H_    0.896333 0.666856 0.600399 0.000000
H664  H     H_    0.938406 0.677046 0.644022 0.000000
H665  H     H_    0.955038 0.610109 0.609400 0.000000
H666  H     H_    0.008418 0.646031 0.595341 0.000000
H667  H     H_    0.151481 0.637582 0.670308 0.000000
H668  H     H_    0.183522 0.557468 0.688181 0.000000
H669  H     H_    0.122705 0.487066 0.700137 0.000000
H670  H     H_    0.032394 0.495903 0.688364 0.000000
C604  C     C_3   0.940406 0.702011 0.703451 0.000000
N202  N     N_3   0.925803 0.657536 0.720226 0.000000
C605  C     C_3   0.953189 0.615901 0.706875 0.000000
C606  C     C_R   0.940892 0.567596 0.721207 0.000000
N203  N     N_R   0.936348 0.559032 0.752357 0.000000
C607  C     C_R   0.925158 0.508727 0.751944 0.000000
C608  C     C_R   0.912558 0.480532 0.776880 0.000000
C609  C     C_R   0.890487 0.432859 0.771527 0.000000
C610  C     C_R   0.879819 0.415418 0.741794 0.000000
C611  C     C_R   0.893745 0.444130 0.717090 0.000000
C612  C     C_R   0.918624 0.489906 0.722560 0.000000
N204  N     N_R   0.930993 0.525702 0.702344 0.000000
H671  H     H_    0.943810 0.735320 0.719307 0.000000
H672  H     H_    0.977157 0.697323 0.691736 0.000000
H673  H     H_    0.911238 0.708135 0.686383 0.000000
H674  H     H_    0.887908 0.649926 0.715351 0.000000
H675  H     H_    0.940740 0.611272 0.683059 0.000000
H676  H     H_    0.994189 0.622915 0.707851 0.000000
H677  H     H_    0.916573 0.496015 0.799987 0.000000
H678  H     H_    0.878918 0.410361 0.790625 0.000000
H679  H     H_    0.859728 0.379485 0.737872 0.000000
H680  H     H_    0.881132 0.432663 0.694806 0.000000
C613  C     C_3   0.088260 0.478524 0.766554 0.000000
N205  N     N_3   0.093681 0.513667 0.792308 0.000000
C614  C     C_3   0.055061 0.550563 0.790344 0.000000
C615  C     C_R   0.031819 0.551798 0.820209 0.000000
N206  N     N_R   0.057930 0.537230 0.845896 0.000000
C616  C     C_R   0.019901 0.534024 0.866329 0.000000
C617  C     C_R   0.022716 0.523415 0.896616 0.000000
C618  C     C_R   0.979223 0.528991 0.913909 0.000000
C619  C     C_R   0.933698 0.539027 0.900427 0.000000
C620  C     C_R   0.931129 0.546161 0.869479 0.000000
C621  C     C_R   0.975069 0.547325 0.853523 0.000000
N207  N     N_R   0.981329 0.560880 0.824438 0.000000
H681  H     H_    0.123693 0.457464 0.763274 0.000000
H682  H     H_    0.056136 0.452984 0.771671 0.000000
H683  H     H_    0.079947 0.498975 0.745721 0.000000
H684  H     H_    0.128331 0.532262 0.792308 0.000000
H685  H     H_    0.071670 0.587885 0.785276 0.000000
H686  H     H_    0.026048 0.538526 0.773295 0.000000
H687  H     H_    0.058054 0.513876 0.906813 0.000000
H688  H     H_    0.980024 0.526274 0.938210 0.000000
H689  H     H_    0.900315 0.541709 0.914389 0.000000
H690  H     H_    0.896105 0.549940 0.857977 0.000000
C622  C     C_3   0.593844 0.316036 0.758140 0.000000
N208  N     N_3   0.549906 0.344777 0.750261 0.000000
C623  C     C_3   0.566023 0.384440 0.729945 0.000000
C624  C     C_R   0.522234 0.414273 0.719908 0.000000
N209  N     N_R   0.475984 0.392777 0.710081 0.000000
C625  C     C_R   0.452133 0.434312 0.701759 0.000000
C626  C     C_R   0.404277 0.436429 0.690810 0.000000
C627  C     C_R   0.385270 0.483638 0.685951 0.000000
C628  C     C_R   0.417037 0.525618 0.686159 0.000000
C629  C     C_R   0.466436 0.521124 0.693688 0.000000
C630  C     C_R   0.481387 0.476767 0.705276 0.000000
N210  N     N_R   0.525837 0.467013 0.717900 0.000000
H691  H     H_    0.582121 0.285279 0.773505 0.000000
H692  H     H_    0.611029 0.298693 0.737164 0.000000
H693  H     H_    0.621927 0.341531 0.770179 0.000000
H694  H     H_    0.537562 0.362837 0.770529 0.000000
H695  H     H_    0.592650 0.410709 0.742364 0.000000
H696  H     H_    0.585325 0.367663 0.709541 0.000000
H697  H     H_    0.381316 0.402910 0.687311 0.000000
H698  H     H_    0.346369 0.487617 0.680510 0.000000
H699  H     H_    0.404052 0.562050 0.680171 0.000000
H700  H     H_    0.491930 0.551183 0.688986 0.000000
C631  C     C_3   0.364574 0.209367 0.659576 0.000000
N211  N     N_3   0.355523 0.258293 0.674747 0.000000
C632  C     C_3   0.324057 0.289507 0.656558 0.000000
C633  C     C_R   0.360209 0.319120 0.640652 0.000000
N212  N     N_R   0.405654 0.328851 0.654963 0.000000
C634  C     C_R   0.437006 0.333833 0.630935 0.000000
C635  C     C_R   0.487478 0.346039 0.631712 0.000000
C636  C     C_R   0.513033 0.347956 0.604185 0.000000
C637  C     C_R   0.487641 0.339098 0.576694 0.000000
C638  C     C_R   0.435851 0.330554 0.576147 0.000000
C639  C     C_R   0.411035 0.327751 0.603776 0.000000
N213  N     N_R   0.360805 0.320398 0.609067 0.000000
H701  H     H_    0.371143 0.181564 0.676998 0.000000
H702  H     H_    0.332333 0.195397 0.645298 0.000000
H703  H     H_    0.399571 0.212618 0.645916 0.000000
H704  H     H_    0.345601 0.257179 0.697636 0.000000
H705  H     H_    0.301214 0.267611 0.639310 0.000000
H706  H     H_    0.301065 0.314741 0.671350 0.000000
H707  H     H_    0.506495 0.355761 0.652879 0.000000
H708  H     H_    0.553039 0.356851 0.604050 0.000000
H709  H     H_    0.508771 0.339803 0.555595 0.000000
H710  H     H_    0.415744 0.326218 0.554695 0.000000
C640  C     C_3   0.674066 0.260505 0.149187 0.000000
N214  N     N_3   0.728129 0.260245 0.154743 0.000000
C641  C     C_3   0.745376 0.210627 0.163498 0.000000
C642  C     C_R   0.792367 0.214901 0.182071 0.000000
N215  N     N_R   0.819390 0.260103 0.188292 0.000000
C643  C     C_R   0.865890 0.242759 0.193854 0.000000
C644  C     C_R   0.910363 0.270648 0.196047 0.000000
C645  C     C_R   0.955121 0.245011 0.197181 0.000000
C646  C     C_R   0.955173 0.192382 0.194042 0.000000
C647  C     C_R   0.910384 0.164904 0.190549 0.000000
C648  C     C_R   0.865761 0.190527 0.192346 0.000000
N216  N     N_R   0.818716 0.171372 0.187049 0.000000
H711  H     H_    0.663915 0.259856 0.124758 0.000000
H712  H     H_    0.656592 0.228269 0.159554 0.000000
H713  H     H_    0.657699 0.295110 0.159732 0.000000
H714  H     H_    0.734019 0.285688 0.173018 0.000000
H715  H     H_    0.717690 0.188695 0.176402 0.000000
H716  H     H_    0.754411 0.188132 0.142666 0.000000
H717  H     H_    0.911523 0.311202 0.194905 0.000000
H718  H     H_    0.990479 0.266292 0.198656 0.000000
H719  H     H_    0.990574 0.172836 0.192935 0.000000
H720  H     H_    0.911514 0.125023 0.184512 0.000000
C649  C     C_3   0.012893 0.229154 0.562537 0.000000
N217  N     N_3   0.020337 0.230806 0.595528 0.000000
C650  C     C_3   0.065720 0.203461 0.602072 0.000000
C651  C     C_R   0.074807 0.205361 0.635997 0.000000
N218  N     N_R   0.067324 0.251118 0.651710 0.000000
C652  C     C_R   0.042370 0.236577 0.676684 0.000000
C653  C     C_R   0.015247 0.267919 0.695793 0.000000
C654  C     C_R   0.977282 0.246912 0.713168 0.000000
C655  C     C_R   0.965085 0.195709 0.708908 0.000000
C656  C     C_R   0.993539 0.165231 0.689319 0.000000
C657  C     C_R   0.036384 0.185240 0.676391 0.000000
N219  N     N_R   0.062598 0.163261 0.653124 0.000000
H721  H     H_    0.008887 0.189050 0.553788 0.000000
H722  H     H_    0.977972 0.249444 0.557263 0.000000
H723  H     H_    0.045204 0.248103 0.551088 0.000000
H724  H     H_    0.990025 0.210742 0.604989 0.000000
H725  H     H_    0.059490 0.163578 0.593910 0.000000
H726  H     H_    0.097501 0.221459 0.589895 0.000000
H727  H     H_    0.019146 0.308177 0.694068 0.000000
H728  H     H_    0.953898 0.271168 0.727524 0.000000
H729  H     H_    0.931799 0.180030 0.719731 0.000000
H730  H     H_    0.979691 0.127862 0.682493 0.000000
C658  C     C_3   0.104306 0.750491 0.936630 0.000000
N220  N     N_3   0.106902 0.804633 0.943432 0.000000
C659  C     C_3   0.146429 0.823785 0.924902 0.000000
C660  C     C_R   0.157568 0.876221 0.933901 0.000000
N221  N     N_R   0.159356 0.914629 0.913051 0.000000
C661  C     C_R   0.185435 0.951538 0.929300 0.000000
C662  C     C_R   0.206926 0.995835 0.918830 0.000000
C663  C     C_R   0.233765 0.027868 0.938931 0.000000
C664  C     C_R   0.240670 0.014726 0.968887 0.000000
C665  C     C_R   0.222516 0.968519 0.978674 0.000000
C666  C     C_R   0.195349 0.936686 0.958444 0.000000
N222  N     N_R   0.177949 0.888347 0.962295 0.000000
H731  H     H_    0.066724 0.735422 0.942435 0.000000
H732  H     H_    0.110657 0.742082 0.912467 0.000000
H733  H     H_    0.133454 0.731642 0.949271 0.000000
H734  H     H_    0.075393 0.819953 0.933814 0.000000
H735  H     H_    0.180098 0.801243 0.927768 0.000000
H736  H     H_    0.133559 0.823095 0.901537 0.000000
H737  H     H_    0.206635 0.004881 0.895343 0.000000
H738  H     H_    0.250568 0.062832 0.930961 0.000000
H739  H     H_    0.262210 0.039804 0.984408 0.000000
H740  H     H_    0.230879 0.958718 0.001676 0.000000
C667  C     C_3   0.194775 0.755375 0.870897 0.000000
N223  N     N_3   0.148496 0.753682 0.852811 0.000000
C668  C     C_3   0.135542 0.801417 0.839292 0.000000
C669  C     C_R   0.179686 0.827906 0.829432 0.000000
N224  N     N_R   0.191517 0.871369 0.845574 0.000000
C670  C     C_R   0.241476 0.874593 0.842818 0.000000
C671  C     C_R   0.273614 0.908208 0.857940 0.000000
C672  C     C_R   0.321033 0.913535 0.845641 0.000000
C673  C     C_R   0.331954 0.888017 0.818187 0.000000
C674  C     C_R   0.302741 0.846596 0.807598 0.000000
C675  C     C_R   0.257399 0.838902 0.821747 0.000000
N225  N     N_R   0.219117 0.805939 0.813761 0.000000
H741  H     H_    0.225957 0.741533 0.856565 0.000000
H742  H     H_    0.205664 0.793776 0.879886 0.000000
H743  H     H_    0.190459 0.729410 0.890156 0.000000
H744  H     H_    0.118297 0.741684 0.865922 0.000000
H745  H     H_    0.108854 0.798968 0.820275 0.000000
H746  H     H_    0.118138 0.825784 0.856546 0.000000
H747  H     H_    0.261063 0.933033 0.876542 0.000000
H748  H     H_    0.347155 0.941718 0.855280 0.000000
H749  H     H_    0.363173 0.901625 0.804825 0.000000
H750  H     H_    0.312178 0.825913 0.786765 0.000000
C676  C     C_3   0.005401 0.747908 0.890356 0.000000
N226  N     N_3   0.024441 0.779012 0.865997 0.000000
C677  C     C_3   0.019522 0.832395 0.874524 0.000000
C678  C     C_R   0.026778 0.863458 0.847255 0.000000
N227  N     N_R   0.067390 0.898195 0.845986 0.000000
C679  C     C_R   0.049939 0.929032 0.824795 0.000000
C680  C     C_R   0.074770 0.964876 0.808919 0.000000
C681  C     C_R   0.045789 0.999193 0.794713 0.000000
C682  C     C_R   0.993911 0.997661 0.798313 0.000000
C683  C     C_R   0.971205 0.952607 0.806633 0.000000
C684  C     C_R   0.002307 0.916242 0.816176 0.000000
N228  N     N_R   0.988058 0.871228 0.826226 0.000000
H751  H     H_    0.032351 0.717565 0.894314 0.000000
H752  H     H_    0.999785 0.771246 0.911544 0.000000
H753  H     H_    0.969889 0.728417 0.882918 0.000000
H754  H     H_    0.001098 0.771652 0.847264 0.000000
H755  H     H_    0.982408 0.840453 0.885043 0.000000
H756  H     H_    0.049063 0.844616 0.890976 0.000000
H757  H     H_    0.114026 0.962344 0.804260 0.000000
H758  H     H_    0.063927 0.026050 0.780626 0.000000
H759  H     H_    0.971052 0.027347 0.789920 0.000000
H760  H     H_    0.930932 0.946723 0.806688 0.000000
C685  C     C_3   0.258247 0.953164 0.767101 0.000000
N229  N     N_3   0.224911 0.991002 0.780286 0.000000
C686  C     C_3   0.218889 0.977164 0.811092 0.000000
C687  C     C_R   0.185949 0.011497 0.827951 0.000000
N230  N     N_R   0.180131 0.062590 0.822538 0.000000
C688  C     C_R   0.148049 0.076180 0.845675 0.000000
C689  C     C_R   0.131603 0.123786 0.854660 0.000000
C690  C     C_R   0.097935 0.127785 0.878905 0.000000
C691  C     C_R   0.081513 0.084913 0.894051 0.000000
C692  C     C_R   0.099392 0.037443 0.885513 0.000000
C693  C     C_R   0.133142 0.034567 0.861699 0.000000
N231  N     N_R   0.156437 0.992719 0.851039 0.000000
H761  H     H_    0.252895 0.951435 0.742478 0.000000
H762  H     H_    0.297968 0.963143 0.772905 0.000000
H763  H     H_    0.248518 0.914831 0.775044 0.000000
H764  H     H_    0.189199 0.983726 0.771332 0.000000
H765  H     H_    0.199011 0.940150 0.810664 0.000000
H766  H     H_    0.255790 0.977360 0.822138 0.000000
H767  H     H_    0.143754 0.157447 0.843341 0.000000
H768  H     H_    0.084184 0.164790 0.886083 0.000000
H769  H     H_    0.055165 0.088798 0.912885 0.000000
H770  H     H_    0.087844 0.003865 0.897489 0.000000
C694  C     C_3   0.032076 0.690610 0.266552 0.000000
N232  N     N_3   0.054369 0.642122 0.258377 0.000000
C695  C     C_3   0.046212 0.629322 0.226020 0.000000
C696  C     C_R   0.062903 0.576197 0.219851 0.000000
N233  N     N_R   0.029459 0.535979 0.212125 0.000000
C697  C     C_R   0.057173 0.495348 0.219334 0.000000
C698  C     C_R   0.043277 0.444505 0.218550 0.000000
C699  C     C_R   0.075941 0.410252 0.230532 0.000000
C700  C     C_R   0.121699 0.426766 0.243069 0.000000
C701  C     C_R   0.136490 0.477512 0.242414 0.000000
C702  C     C_R   0.103979 0.510652 0.229741 0.000000
N234  N     N_R   0.110394 0.561338 0.228628 0.000000
H771  H     H_    0.055312 0.721449 0.257002 0.000000
H772  H     H_    0.993025 0.691760 0.257960 0.000000
H773  H     H_    0.031385 0.695852 0.291868 0.000000
H774  H     H_    0.035692 0.614608 0.270965 0.000000
H775  H     H_    0.006198 0.631891 0.220069 0.000000
H776  H     H_    0.067226 0.656506 0.212143 0.000000
H777  H     H_    0.007938 0.430731 0.209336 0.000000
H778  H     H_    0.065201 0.370311 0.230663 0.000000
H779  H     H_    0.145994 0.399642 0.253188 0.000000
H780  H     H_    0.172356 0.490653 0.251781 0.000000
C703  C     C_3   0.883024 0.435253 0.098490 0.000000
N235  N     N_3   0.891472 0.415934 0.128604 0.000000
C704  C     C_3   0.868392 0.449130 0.151214 0.000000
C705  C     C_R   0.881124 0.433364 0.182365 0.000000
N236  N     N_R   0.859921 0.391135 0.196424 0.000000
C706  C     C_R   0.883480 0.393733 0.223784 0.000000
C707  C     C_R   0.875658 0.361875 0.247645 0.000000
C708  C     C_R   0.900657 0.373537 0.274863 0.000000
C709  C     C_R   0.932038 0.416561 0.277790 0.000000
C710  C     C_R   0.938918 0.448510 0.253583 0.000000
C711  C     C_R   0.914503 0.436100 0.226507 0.000000
N237  N     N_R   0.915052 0.462032 0.200332 0.000000
H781  H     H_    0.905823 0.413591 0.081449 0.000000
H782  H     H_    0.842498 0.431727 0.092719 0.000000
H783  H     H_    0.894576 0.475377 0.097748 0.000000
H784  H     H_    0.929696 0.413625 0.132880 0.000000
H785  H     H_    0.884481 0.487339 0.148641 0.000000
H786  H     H_    0.827497 0.449232 0.147487 0.000000
H787  H     H_    0.850143 0.329243 0.245405 0.000000
H788  H     H_    0.895344 0.349289 0.294090 0.000000
H789  H     H_    0.951256 0.425253 0.299226 0.000000
H790  H     H_    0.963790 0.481236 0.255924 0.000000
C712  C     C_3   0.036487 0.623808 0.151475 0.000000
N238  N     N_3   0.984460 0.634156 0.159403 0.000000
C713  C     C_3   0.954132 0.627260 0.132091 0.000000
C714  C     C_R   0.953418 0.572176 0.123250 0.000000
N239  N     N_R   0.964910 0.537218 0.144892 0.000000
C715  C     C_R   0.987883 0.500823 0.127976 0.000000
C716  C     C_R   0.013299 0.460193 0.138283 0.000000
C717  C     C_R   0.034289 0.426696 0.116929 0.000000
C718  C     C_R   0.029450 0.434736 0.085914 0.000000
C719  C     C_R   0.005415 0.477305 0.076174 0.000000
C720  C     C_R   0.986103 0.510745 0.097756 0.000000
N240  N     N_R   0.963832 0.555552 0.093523 0.000000
H791  H     H_    0.059288 0.657230 0.159107 0.000000
H792  H     H_    0.049137 0.589494 0.162584 0.000000
H793  H     H_    0.041650 0.616255 0.126730 0.000000
H794  H     H_    0.982893 0.672412 0.166098 0.000000
H795  H     H_    0.917034 0.643020 0.136620 0.000000
H796  H     H_    0.969852 0.650173 0.113731 0.000000
H797  H     H_    0.015447 0.453740 0.162142 0.000000
H798  H     H_    0.053673 0.393689 0.124417 0.000000
H799  H     H_    0.045089 0.407962 0.069238 0.000000
H800  H     H_    0.001688 0.483186 0.052401 0.000000
C721  C     C_3   0.554858 0.449488 0.019345 0.000000
N241  N     N_3   0.602347 0.424308 0.023425 0.000000
C722  C     C_3   0.642905 0.461691 0.019806 0.000000
C723  C     C_R   0.692469 0.436447 0.018662 0.000000
N242  N     N_R   0.698883 0.386311 0.026932 0.000000
C724  C     C_R   0.729490 0.368573 0.004261 0.000000
C725  C     C_R   0.745296 0.319479 0.998421 0.000000
C726  C     C_R   0.770268 0.308226 0.971327 0.000000
C727  C     C_R   0.775873 0.344889 0.949692 0.000000
C728  C     C_R   0.760430 0.393907 0.956245 0.000000
C729  C     C_R   0.741942 0.406145 0.984881 0.000000
N243  N     N_R   0.723361 0.450958 0.995182 0.000000
H801  H     H_    0.523899 0.424207 0.027196 0.000000
H802  H     H_    0.554381 0.485961 0.032981 0.000000
H803  H     H_    0.549366 0.456889 0.994764 0.000000
H804  H     H_    0.605115 0.397192 0.005426 0.000000
H805  H     H_    0.637994 0.479735 0.997515 0.000000
H806  H     H_    0.642430 0.492820 0.037398 0.000000
H807  H     H_    0.740515 0.290335 0.014671 0.000000
H808  H     H_    0.782801 0.269934 0.966319 0.000000
H809  H     H_    0.790883 0.334794 0.927281 0.000000
H810  H     H_    0.756512 0.419035 0.938011 0.000000
C730  C     C_3   0.566445 0.569771 0.930112 0.000000
N244  N     N_3   0.615396 0.550262 0.937851 0.000000
C731  C     C_3   0.654334 0.587845 0.930546 0.000000
C732  C     C_R   0.699343 0.561047 0.919755 0.000000
N245  N     N_R   0.732469 0.538078 0.939288 0.000000
C733  C     C_R   0.764424 0.515837 0.919187 0.000000
C734  C     C_R   0.808349 0.491659 0.925405 0.000000
C735  C     C_R   0.832305 0.465606 0.901663 0.000000
C736  C     C_R   0.812512 0.465305 0.872410 0.000000
C737  C     C_R   0.770743 0.493684 0.866529 0.000000
C738  C     C_R   0.749604 0.522170 0.889932 0.000000
N246  N     N_R   0.710812 0.554555 0.888879 0.000000
H811  H     H_    0.560446 0.565452 0.905032 0.000000
H812  H     H_    0.536601 0.547524 0.941835 0.000000
H813  H     H_    0.563987 0.610386 0.937747 0.000000
H814  H     H_    0.621090 0.517539 0.924062 0.000000
H815  H     H_    0.641548 0.612134 0.912346 0.000000
H816  H     H_    0.664875 0.611493 0.950982 0.000000
H817  H     H_    0.821958 0.489569 0.948348 0.000000
H818  H     H_    0.865330 0.443808 0.906205 0.000000
H819  H     H_    0.829556 0.442597 0.854150 0.000000
H820  H     H_    0.752834 0.489463 0.844914 0.000000
C739  C     C_3   0.888972 0.395486 0.006127 0.000000
N247  N     N_3   0.874131 0.446671 0.999714 0.000000
C740  C     C_3   0.864488 0.475304 0.028264 0.000000
C741  C     C_R   0.857993 0.529543 0.020693 0.000000
N248  N     N_R   0.899672 0.562244 0.023535 0.000000
C742  C     C_R   0.895091 0.590350 0.998916 0.000000
C743  C     C_R   0.931261 0.622278 0.987283 0.000000
C744  C     C_R   0.921900 0.642828 0.959432 0.000000
C745  C     C_R   0.876133 0.634169 0.945157 0.000000
C746  C     C_R   0.839336 0.603555 0.958122 0.000000
C747  C     C_R   0.850894 0.579596 0.984182 0.000000
N249  N     N_R   0.824294 0.542506 0.997857 0.000000
H821  H     H_    0.905090 0.377329 0.985062 0.000000
H822  H     H_    0.917700 0.396142 0.024527 0.000000
H823  H     H_    0.855083 0.373153 0.012505 0.000000
H824  H     H_    0.840127 0.442857 0.988021 0.000000
H825  H     H_    0.832038 0.458077 0.040227 0.000000
H826  H     H_    0.898118 0.474482 0.043042 0.000000
H827  H     H_    0.967175 0.628506 0.998337 0.000000
H828  H     H_    0.950227 0.665381 0.948261 0.000000
H829  H     H_    0.870604 0.650832 0.923389 0.000000
H830  H     H_    0.803127 0.598113 0.948242 0.000000
C748  C     C_3   0.733422 0.914235 0.064399 0.000000
N250  N     N_3   0.785310 0.921445 0.053929 0.000000
C749  C     C_3   0.811337 0.873727 0.050912 0.000000
C750  C     C_R   0.837636 0.872170 0.021391 0.000000
N251  N     N_R   0.813756 0.889810 0.996158 0.000000
C751  C     C_R   0.852158 0.899266 0.977141 0.000000
C752  C     C_R   0.849541 0.917887 0.948285 0.000000
C753  C     C_R   0.894158 0.928720 0.933316 0.000000
C754  C     C_R   0.939749 0.922645 0.947946 0.000000
C755  C     C_R   0.941142 0.903226 0.976915 0.000000
C756  C     C_R   0.896886 0.888380 0.990568 0.000000
N252  N     N_R   0.889432 0.867348 0.018317 0.000000
H831  H     H_    0.716626 0.951658 0.069253 0.000000
H832  H     H_    0.710590 0.894324 0.046649 0.000000
H833  H     H_    0.730646 0.893804 0.085615 0.000000
H834  H     H_    0.805463 0.944211 0.069836 0.000000
H835  H     H_    0.840766 0.873761 0.068713 0.000000
H836  H     H_    0.784472 0.841237 0.051918 0.000000
H837  H     H_    0.814121 0.924711 0.937597 0.000000
H838  H     H_    0.893462 0.943650 0.910614 0.000000
H839  H     H_    0.974563 0.933292 0.936680 0.000000
H840  H     H_    0.976204 0.901039 0.988267 0.000000
C757  C     C_3   0.837390 0.053283 0.984828 0.000000
N253  N     N_3   0.788607 0.058785 0.999682 0.000000
C758  C     C_3   0.778092 0.013610 0.017103 0.000000
C759  C     C_R   0.722900 0.002385 0.018670 0.000000
N254  N     N_R   0.686121 0.038392 0.025103 0.000000
C760  C     C_R   0.646261 0.017064 0.009813 0.000000
C761  C     C_R   0.599956 0.037562 0.005884 0.000000
C762  C     C_R   0.563975 0.009147 0.989371 0.000000
C763  C     C_R   0.575067 0.961121 0.977064 0.000000
C764  C     C_R   0.622082 0.940897 0.981370 0.000000
C765  C     C_R   0.656727 0.969469 0.998327 0.000000
N255  N     N_R   0.704607 0.957891 0.004422 0.000000
H841  H     H_    0.850373 0.090763 0.976583 0.000000
H842  H     H_    0.865309 0.039878 0.001397 0.000000
H843  H     H_    0.834131 0.025873 0.964929 0.000000
H844  H     H_    0.761209 0.061991 0.982855 0.000000
H845  H     H_    0.795361 0.981089 0.004855 0.000000
H846  H     H_    0.795159 0.016501 0.040026 0.000000
H847  H     H_    0.592403 0.074839 0.015296 0.000000
H848  H     H_    0.527115 0.024553 0.985847 0.000000
H849  H     H_    0.546903 0.939526 0.963867 0.000000
H850  H     H_    0.631244 0.904348 0.971128 0.000000
C766  C     C_3   0.672392 0.723971 0.950571 0.000000
N256  N     N_3   0.700921 0.762412 0.934649 0.000000
C767  C     C_3   0.671790 0.808442 0.934667 0.000000
C768  C     C_R   0.701200 0.852055 0.922125 0.000000
N257  N     N_R   0.720667 0.888821 0.942247 0.000000
C769  C     C_R   0.714817 0.931849 0.926987 0.000000
C770  C     C_R   0.724515 0.980945 0.937158 0.000000
C771  C     C_R   0.704656 0.019839 0.920911 0.000000
C772  C     C_R   0.673860 0.008419 0.895816 0.000000
C773  C     C_R   0.666757 0.958387 0.885307 0.000000
C774  C     C_R   0.692666 0.921424 0.899534 0.000000
N258  N     N_R   0.688385 0.870940 0.894132 0.000000
H851  H     H_    0.641223 0.708874 0.935701 0.000000
H852  H     H_    0.697950 0.692832 0.955913 0.000000
H853  H     H_    0.656812 0.739964 0.972209 0.000000
H854  H     H_    0.701913 0.748074 0.912242 0.000000
H855  H     H_    0.636879 0.801700 0.921465 0.000000
H856  H     H_    0.660650 0.819690 0.958191 0.000000
H857  H     H_    0.747268 0.988647 0.956991 0.000000
H858  H     H_    0.711030 0.059031 0.928700 0.000000
H859  H     H_    0.655499 0.038649 0.884389 0.000000
H860  H     H_    0.640889 0.948700 0.866827 0.000000
C775  C     C_3   0.959656 0.785584 0.969838 0.000000
N259  N     N_3   0.012670 0.801024 0.969727 0.000000
C776  C     C_3   0.036695 0.783811 0.996979 0.000000
C777  C     C_R   0.053465 0.827352 0.017329 0.000000
N260  N     N_R   0.100835 0.851065 0.016274 0.000000
C778  C     C_R   0.090028 0.898705 0.025895 0.000000
C779  C     C_R   0.119886 0.940685 0.022035 0.000000
C780  C     C_R   0.099976 0.988392 0.026568 0.000000
C781  C     C_R   0.049180 0.992707 0.032794 0.000000
C782  C     C_R   0.019321 0.949386 0.035595 0.000000
C783  C     C_R   0.041004 0.902546 0.034110 0.000000
N261  N     N_R   0.017274 0.856767 0.031068 0.000000
H861  H     H_    0.956134 0.743950 0.966462 0.000000
H862  H     H_    0.941062 0.797165 0.991583 0.000000
H863  H     H_    0.940254 0.803544 0.950806 0.000000
H864  H     H_    0.016902 0.840265 0.969095 0.000000
H865  H     H_    0.007019 0.763409 0.008194 0.000000
H866  H     H_    0.068143 0.758515 0.991628 0.000000
H867  H     H_    0.158449 0.935739 0.016839 0.000000
H868  H     H_    0.123496 0.022088 0.023854 0.000000
H869  H     H_    0.032260 0.029760 0.033533 0.000000
H870  H     H_    0.979786 0.952187 0.033139 0.000000
C784  C     C_3   0.072390 0.696164 0.095041 0.000000
N262  N     N_3   0.048721 0.671185 0.068799 0.000000
C785  C     C_3   0.029086 0.706030 0.047167 0.000000
C786  C     C_R   0.974217 0.707781 0.049243 0.000000
N263  N     N_R   0.948444 0.663125 0.053963 0.000000
C787  C     C_R   0.903229 0.679213 0.061309 0.000000
C788  C     C_R   0.864489 0.649598 0.071146 0.000000
C789  C     C_R   0.820607 0.673790 0.077478 0.000000
C790  C     C_R   0.817565 0.724903 0.072139 0.000000
C791  C     C_R   0.858215 0.754587 0.064685 0.000000
C792  C     C_R   0.901012 0.730612 0.059251 0.000000
N264  N     N_R   0.944971 0.751859 0.050940 0.000000
H871  H     H_    0.045082 0.702308 0.113841 0.000000
H872  H     H_    0.100636 0.670272 0.102878 0.000000
H873  H     H_    0.091228 0.731882 0.089019 0.000000
H874  H     H_    0.022625 0.644806 0.076461 0.000000
H875  H     H_    0.044288 0.744555 0.051439 0.000000
H876  H     H_    0.038686 0.690834 0.023930 0.000000
H877  H     H_    0.868401 0.609258 0.073269 0.000000
H878  H     H_    0.787353 0.652868 0.084042 0.000000
H879  H     H_    0.781542 0.740411 0.070342 0.000000
H880  H     H_    0.856417 0.794021 0.061236 0.000000
C793  C     C_3   0.793603 0.878383 0.756345 0.000000
N265  N     N_3   0.776669 0.913166 0.780112 0.000000
C794  C     C_3   0.813281 0.913643 0.804558 0.000000
C795  C     C_R   0.814136 0.865088 0.820908 0.000000
N266  N     N_R   0.777775 0.847632 0.841355 0.000000
C796  C     C_R   0.806742 0.822913 0.860615 0.000000
C797  C     C_R   0.791897 0.799986 0.886169 0.000000
C798  C     C_R   0.827882 0.780309 0.904423 0.000000
C799  C     C_R   0.877207 0.777997 0.894694 0.000000
C800  C     C_R   0.890333 0.796563 0.866603 0.000000
C801  C     C_R   0.854666 0.820542 0.850788 0.000000
N267  N     N_R   0.860504 0.844263 0.824616 0.000000
H881  H     H_    0.814074 0.898976 0.738590 0.000000
H882  H     H_    0.818888 0.852269 0.766126 0.000000
H883  H     H_    0.761271 0.856844 0.746493 0.000000
H884  H     H_    0.778765 0.949209 0.770939 0.000000
H885  H     H_    0.851190 0.919755 0.794852 0.000000
H886  H     H_    0.807654 0.945943 0.821077 0.000000
H887  H     H_    0.753257 0.796281 0.890737 0.000000
H888  H     H_    0.816709 0.762793 0.924951 0.000000
H889  H     H_    0.904025 0.759344 0.908577 0.000000
H890  H     H_    0.926969 0.793500 0.857184 0.000000
C802  C     C_3   0.807284 0.669421 0.766126 0.000000
N268  N     N_3   0.857682 0.673545 0.777117 0.000000
C803  C     C_3   0.862626 0.706233 0.804445 0.000000
C804  C     C_R   0.916229 0.713563 0.806359 0.000000
N269  N     N_R   0.942612 0.671816 0.795939 0.000000
C805  C     C_R   0.977678 0.692958 0.778396 0.000000
C806  C     C_R   0.011530 0.668616 0.760175 0.000000
C807  C     C_R   0.042346 0.698622 0.742768 0.000000
C808  C     C_R   0.044516 0.751036 0.748239 0.000000
C809  C     C_R   0.008472 0.774917 0.765821 0.000000
C810  C     C_R   0.974489 0.744446 0.779732 0.000000
N270  N     N_R   0.937433 0.759591 0.798178 0.000000
H891  H     H_    0.792284 0.707186 0.765735 0.000000
H892  H     H_    0.808663 0.652363 0.742827 0.000000
H893  H     H_    0.783746 0.645134 0.780077 0.000000
H894  H     H_    0.876091 0.693505 0.760352 0.000000
H895  H     H_    0.844190 0.742655 0.803133 0.000000
H896  H     H_    0.848852 0.687836 0.824216 0.000000
H897  H     H_    0.012533 0.627806 0.758502 0.000000
H898  H     H_    0.065472 0.680364 0.725677 0.000000
H899  H     H_    0.075307 0.773439 0.739964 0.000000
H900  H     H_    0.009531 0.815034 0.771201 0.000000
C811  C     C_3   0.574266 0.734347 0.798149 0.000000
N271  N     N_3   0.613143 0.774418 0.798005 0.000000
C812  C     C_3   0.588830 0.822859 0.796223 0.000000
C813  C     C_R   0.626263 0.865605 0.792780 0.000000
N272  N     N_R   0.661984 0.877870 0.815212 0.000000
C814  C     C_R   0.677475 0.924920 0.807196 0.000000
C815  C     C_R   0.709942 0.958195 0.822634 0.000000
C816  C     C_R   0.718710 0.005989 0.811108 0.000000
C817  C     C_R   0.697097 0.018864 0.783655 0.000000
C818  C     C_R   0.665582 0.984448 0.767850 0.000000
C819  C     C_R   0.655349 0.938266 0.780639 0.000000
N273  N     N_R   0.622196 0.902078 0.770488 0.000000
H901  H     H_    0.589716 0.700002 0.808110 0.000000
H902  H     H_    0.541221 0.746967 0.811755 0.000000
H903  H     H_    0.562401 0.723518 0.774526 0.000000
H904  H     H_    0.632764 0.769142 0.777621 0.000000
H905  H     H_    0.563965 0.820660 0.776392 0.000000
H906  H     H_    0.566687 0.830567 0.817392 0.000000
H907  H     H_    0.729934 0.946830 0.842541 0.000000
H908  H     H_    0.744161 0.032714 0.822989 0.000000
H909  H     H_    0.705113 0.055828 0.774520 0.000000
H910  H     H_    0.648200 0.994230 0.746583 0.000000
C820  C     C_3   0.736431 0.782022 0.783255 0.000000
N274  N     N_3   0.713890 0.737971 0.797066 0.000000
C821  C     C_3   0.742262 0.721251 0.822794 0.000000
C822  C     C_R   0.706148 0.718514 0.847031 0.000000
N275  N     N_R   0.682423 0.672607 0.853663 0.000000
C823  C     C_R   0.637390 0.688884 0.864026 0.000000
C824  C     C_R   0.595154 0.659585 0.869608 0.000000
C825  C     C_R   0.551539 0.684372 0.878261 0.000000
C826  C     C_R   0.550398 0.737356 0.879969 0.000000
C827  C     C_R   0.592459 0.766398 0.872263 0.000000
C828  C     C_R   0.635644 0.741172 0.864532 0.000000
N276  N     N_R   0.679103 0.761476 0.853940 0.000000
H911  H     H_    0.725829 0.780869 0.758702 0.000000
H912  H     H_    0.722011 0.816739 0.794462 0.000000
H913  H     H_    0.777571 0.782563 0.785258 0.000000
H914  H     H_    0.713095 0.708629 0.780966 0.000000
H915  H     H_    0.755022 0.682449 0.818630 0.000000
H916  H     H_    0.772976 0.747554 0.829373 0.000000
H917  H     H_    0.595678 0.618589 0.866776 0.000000
H918  H     H_    0.517763 0.662318 0.883188 0.000000
H919  H     H_    0.515835 0.756033 0.886370 0.000000
H920  H     H_    0.591196 0.807479 0.872071 0.000000
C829  C     C_3   0.141948 0.525100 0.095622 0.000000
N277  N     N_3   0.128345 0.532716 0.063910 0.000000
C830  C     C_3   0.102537 0.580714 0.062707 0.000000
C831  C     C_R   0.078031 0.584205 0.032070 0.000000
N278  N     N_R   0.106813 0.571261 0.007086 0.000000
C832  C     C_R   0.076327 0.537381 0.991400 0.000000
C833  C     C_R   0.088932 0.500605 0.969401 0.000000
C834  C     C_R   0.054462 0.461946 0.961979 0.000000
C835  C     C_R   0.007491 0.461072 0.975608 0.000000
C836  C     C_R   0.994144 0.500030 0.995895 0.000000
C837  C     C_R   0.029465 0.537181 0.003959 0.000000
N279  N     N_R   0.027918 0.569762 0.028511 0.000000
H921  H     H_    0.164676 0.490343 0.096740 0.000000
H922  H     H_    0.164550 0.558328 0.104795 0.000000
H923  H     H_    0.107555 0.520045 0.109777 0.000000
H924  H     H_    0.103237 0.503379 0.056989 0.000000
H925  H     H_    0.073574 0.581126 0.080860 0.000000
H926  H     H_    0.130634 0.612144 0.066256 0.000000
H927  H     H_    0.125245 0.497986 0.959237 0.000000
H928  H     H_    0.064585 0.431841 0.945677 0.000000
H929  H     H_    0.980965 0.430329 0.969967 0.000000
H930  H     H_    0.958947 0.497614 0.007460 0.000000
C838  C     C_3   0.183825 0.572610 0.586553 0.000000
N280  N     N_3   0.192967 0.627308 0.585150 0.000000
C839  C     C_3   0.183361 0.649330 0.615375 0.000000
C840  C     C_R   0.187216 0.705600 0.615741 0.000000
N281  N     N_R   0.146499 0.733465 0.624314 0.000000
C841  C     C_R   0.154366 0.777468 0.609539 0.000000
C842  C     C_R   0.125610 0.820663 0.608788 0.000000
C843  C     C_R   0.137787 0.857119 0.588296 0.000000
C844  C     C_R   0.184205 0.856757 0.574733 0.000000
C845  C     C_R   0.217561 0.819916 0.581800 0.000000
C846  C     C_R   0.199797 0.777233 0.595693 0.000000
N282  N     N_R   0.222522 0.732661 0.599637 0.000000
H931  H     H_    0.193532 0.553699 0.564249 0.000000
H932  H     H_    0.207405 0.556764 0.604632 0.000000
H933  H     H_    0.143496 0.564747 0.591648 0.000000
H934  H     H_    0.165353 0.641129 0.570894 0.000000
H935  H     H_    0.143547 0.640285 0.620225 0.000000
H936  H     H_    0.208206 0.633750 0.632636 0.000000
H937  H     H_    0.095713 0.829032 0.624251 0.000000
H938  H     H_    0.113730 0.888914 0.585486 0.000000
H939  H     H_    0.195998 0.888030 0.561183 0.000000
H940  H     H_    0.255637 0.825060 0.575042 0.000000
C847  C     C_3   0.184224 0.775138 0.065052 0.000000
N283  N     N_3   0.179490 0.721744 0.056294 0.000000
C848  C     C_3   0.143727 0.716152 0.031661 0.000000
C849  C     C_R   0.172053 0.718048 0.003598 0.000000
N284  N     N_R   0.191314 0.763323 0.992205 0.000000
C850  C     C_R   0.226905 0.745179 0.972622 0.000000
C851  C     C_R   0.259768 0.772274 0.954776 0.000000
C852  C     C_R   0.293974 0.745635 0.936746 0.000000
C853  C     C_R   0.295639 0.692906 0.937263 0.000000
C854  C     C_R   0.262299 0.665959 0.955268 0.000000
C855  C     C_R   0.227669 0.692864 0.972329 0.000000
N285  N     N_R   0.192822 0.673961 0.991599 0.000000
H941  H     H_    0.162063 0.783100 0.086018 0.000000
H942  H     H_    0.224512 0.784364 0.069075 0.000000
H943  H     H_    0.171008 0.799460 0.047035 0.000000
H944  H     H_    0.166213 0.701975 0.074875 0.000000
H945  H     H_    0.125460 0.678192 0.032026 0.000000
H946  H     H_    0.116722 0.746792 0.032520 0.000000
H947  H     H_    0.257694 0.812800 0.953504 0.000000
H948  H     H_    0.319777 0.766111 0.922196 0.000000
H949  H     H_    0.323269 0.672769 0.923531 0.000000
H950  H     H_    0.264670 0.625279 0.956402 0.000000
C856  C     C_3   0.139338 0.972314 0.100238 0.000000
N286  N     N_3   0.169933 0.946656 0.076999 0.000000
C857  C     C_3   0.185030 0.896924 0.086562 0.000000
C858  C     C_R   0.230116 0.881918 0.068582 0.000000
N287  N     N_R   0.228962 0.872763 0.036756 0.000000
C859  C     C_R   0.277418 0.884001 0.029434 0.000000
C860  C     C_R   0.298108 0.887281 0.000709 0.000000
C861  C     C_R   0.346977 0.906298 0.998147 0.000000
C862  C     C_R   0.374748 0.920575 0.024109 0.000000
C863  C     C_R   0.354215 0.915264 0.052996 0.000000
C864  C     C_R   0.305347 0.896805 0.055044 0.000000
N288  N     N_R   0.277870 0.891499 0.080745 0.000000
H951  H     H_    0.158494 0.973554 0.122795 0.000000
H952  H     H_    0.133159 0.011900 0.093493 0.000000
H953  H     H_    0.102002 0.952686 0.101407 0.000000
H954  H     H_    0.201454 0.969075 0.071824 0.000000
H955  H     H_    0.195876 0.899017 0.111031 0.000000
H956  H     H_    0.153503 0.869457 0.082477 0.000000
H957  H     H_    0.276000 0.879248 0.980579 0.000000
H958  H     H_    0.363425 0.910674 0.975702 0.000000
H959  H     H_    0.412922 0.935217 0.021734 0.000000
H960  H     H_    0.376547 0.924505 0.073096 0.000000
C865  C     C_3   0.624302 0.205706 0.214573 0.000000
N289  N     N_3   0.635436 0.259044 0.210786 0.000000
C866  C     C_3   0.683894 0.271037 0.224777 0.000000
C867  C     C_R   0.692464 0.326080 0.226532 0.000000
N290  N     N_R   0.738855 0.349738 0.220219 0.000000
C868  C     C_R   0.741621 0.385389 0.243603 0.000000
C869  C     C_R   0.776942 0.423572 0.249350 0.000000
C870  C     C_R   0.776711 0.449163 0.277593 0.000000
C871  C     C_R   0.739797 0.438363 0.298981 0.000000
C872  C     C_R   0.700574 0.404957 0.291185 0.000000
C873  C     C_R   0.700842 0.381553 0.262361 0.000000
N291  N     N_R   0.666052 0.349200 0.249702 0.000000
H961  H     H_    0.650427 0.182481 0.201169 0.000000
H962  H     H_    0.632182 0.195700 0.237690 0.000000
H963  H     H_    0.584271 0.197021 0.208818 0.000000
H964  H     H_    0.607938 0.279267 0.222507 0.000000
H965  H     H_    0.683210 0.259792 0.248844 0.000000
H966  H     H_    0.714801 0.251241 0.213960 0.000000
H967  H     H_    0.802272 0.436181 0.232124 0.000000
H968  H     H_    0.805857 0.477426 0.283061 0.000000
H969  H     H_    0.740362 0.457847 0.321255 0.000000
H970  H     H_    0.671268 0.397474 0.307639 0.000000
C874  C     C_3   0.604614 0.466540 0.175700 0.000000
N292  N     N_3   0.567462 0.431095 0.186998 0.000000
C875  C     C_3   0.582507 0.378521 0.181103 0.000000
C876  C     C_R   0.541312 0.347413 0.193149 0.000000
N293  N     N_R   0.538918 0.344350 0.224720 0.000000
C877  C     C_R   0.490138 0.354824 0.230301 0.000000
C878  C     C_R   0.466382 0.360144 0.258062 0.000000
C879  C     C_R   0.415567 0.370699 0.258030 0.000000
C880  C     C_R   0.390983 0.381129 0.231300 0.000000
C881  C     C_R   0.416314 0.377986 0.203853 0.000000
C882  C     C_R   0.464654 0.361015 0.203743 0.000000
N294  N     N_R   0.494748 0.352598 0.179421 0.000000
H971  H     H_    0.589105 0.505126 0.177479 0.000000
H972  H     H_    0.638180 0.465846 0.189876 0.000000
H973  H     H_    0.614709 0.456601 0.151883 0.000000
H974  H     H_    0.533727 0.437655 0.175924 0.000000
H975  H     H_    0.587002 0.369428 0.156580 0.000000
H976  H     H_    0.617486 0.370898 0.193453 0.000000
H977  H     H_    0.485649 0.353273 0.279009 0.000000
H978  H     H_    0.394254 0.370515 0.278735 0.000000
H979  H     H_    0.351688 0.391076 0.231909 0.000000
H980  H     H_    0.398254 0.388565 0.183533 0.000000
C883  C     C_3   0.568604 0.968913 0.156156 0.000000
N295  N     N_3   0.552930 0.001673 0.181760 0.000000
C884  C     C_3   0.564465 0.053732 0.174226 0.000000
C885  C     C_R   0.528411 0.088412 0.189299 0.000000
N296  N     N_R   0.484149 0.099133 0.174526 0.000000
C886  C     C_R   0.453388 0.109809 0.198362 0.000000
C887  C     C_R   0.401771 0.113356 0.197694 0.000000
C888  C     C_R   0.376329 0.118543 0.225285 0.000000
C889  C     C_R   0.402464 0.119066 0.252759 0.000000
C890  C     C_R   0.454386 0.115176 0.252971 0.000000
C891  C     C_R   0.479254 0.110603 0.225383 0.000000
N297  N     N_R   0.528213 0.099049 0.220761 0.000000
H981  H     H_    0.608524 0.977241 0.150215 0.000000
H982  H     H_    0.545268 0.975169 0.136016 0.000000
H983  H     H_    0.564190 0.928728 0.162631 0.000000
H984  H     H_    0.514557 0.996632 0.185306 0.000000
H985  H     H_    0.602456 0.064554 0.182025 0.000000
H986  H     H_    0.561325 0.056328 0.149286 0.000000
H987  H     H_    0.381512 0.111838 0.176268 0.000000
H988  H     H_    0.335792 0.121591 0.225466 0.000000
H989  H     H_    0.382063 0.121952 0.274197 0.000000
H990  H     H_    0.474641 0.113146 0.274239 0.000000
C892  C     C_3   0.424932 0.237026 0.289467 0.000000
N298  N     N_3   0.477399 0.223881 0.292918 0.000000
C893  C     C_3   0.504211 0.228135 0.263895 0.000000
C894  C     C_R   0.558149 0.221376 0.269685 0.000000
N299  N     N_R   0.585540 0.264205 0.279255 0.000000
C895  C     C_R   0.619237 0.245125 0.298325 0.000000
C896  C     C_R   0.656017 0.271371 0.314786 0.000000
C897  C     C_R   0.687922 0.243651 0.332395 0.000000
C898  C     C_R   0.683109 0.190835 0.332558 0.000000
C899  C     C_R   0.646333 0.165190 0.315121 0.000000
C900  C     C_R   0.614375 0.193215 0.298517 0.000000
N300  N     N_R   0.577828 0.175711 0.279127 0.000000
H991  H     H_    0.402681 0.221402 0.308619 0.000000
H992  H     H_    0.421608 0.278914 0.290289 0.000000
H993  H     H_    0.409792 0.220798 0.267613 0.000000
H994  H     H_    0.479033 0.186766 0.300262 0.000000
H995  H     H_    0.489795 0.202465 0.245553 0.000000
H996  H     H_    0.500473 0.266900 0.256226 0.000000
H997  H     H_    0.659389 0.312217 0.314452 0.000000
H998  H     H_    0.717161 0.263155 0.345838 0.000000
H999  H     H_    0.708897 0.169530 0.345923 0.000000
H1000 H     H_    0.643231 0.124629 0.313982 0.000000
C901  C     C_3   0.794034 0.183299 0.280345 0.000000
N301  N     N_3   0.762990 0.139513 0.270215 0.000000
C902  C     C_3   0.723998 0.157438 0.250337 0.000000
C903  C     C_R   0.700776 0.113287 0.232920 0.000000
N302  N     N_R   0.730672 0.084644 0.213399 0.000000
C904  C     C_R   0.704882 0.040531 0.211530 0.000000
C905  C     C_R   0.720591 0.996772 0.197979 0.000000
C906  C     C_R   0.686766 0.956551 0.194848 0.000000
C907  C     C_R   0.640249 0.959802 0.209104 0.000000
C908  C     C_R   0.627615 0.002655 0.226485 0.000000
C909  C     C_R   0.660280 0.043510 0.226389 0.000000
N303  N     N_R   0.654161 0.090021 0.239475 0.000000
H1001 H     H_    0.818673 0.172338 0.299342 0.000000
H1002 H     H_    0.818007 0.196179 0.261144 0.000000
H1003 H     H_    0.769809 0.214878 0.288505 0.000000
H1004 H     H_    0.745157 0.125237 0.289501 0.000000
H1005 H     H_    0.696283 0.177631 0.264430 0.000000
H1006 H     H_    0.741719 0.182890 0.233882 0.000000
H1007 H     H_    0.759004 0.994524 0.191523 0.000000
H1008 H     H_    0.697306 0.921868 0.182557 0.000000
H1009 H     H_    0.613523 0.928256 0.207061 0.000000
H1010 H     H_    0.591448 0.004635 0.237427 0.000000
C910  C     C_3   0.740610 0.449191 0.178227 0.000000
N304  N     N_3   0.714497 0.439939 0.149259 0.000000
C911  C     C_3   0.697124 0.387315 0.146346 0.000000
C912  C     C_R   0.735371 0.358565 0.129175 0.000000
N305  N     N_R   0.736355 0.350046 0.097657 0.000000
C913  C     C_R   0.785721 0.339181 0.093161 0.000000
C914  C     C_R   0.811980 0.332728 0.066343 0.000000
C915  C     C_R   0.862238 0.319219 0.067591 0.000000
C916  C     C_R   0.885566 0.312207 0.095490 0.000000
C917  C     C_R   0.858886 0.319762 0.122456 0.000000
C918  C     C_R   0.810056 0.335750 0.120374 0.000000
N306  N     N_R   0.779230 0.347466 0.143567 0.000000
H1011 H     H_    0.760360 0.486779 0.178206 0.000000
H1012 H     H_    0.714283 0.448339 0.197714 0.000000
H1013 H     H_    0.768995 0.420234 0.181331 0.000000
H1014 H     H_    0.741834 0.443846 0.132325 0.000000
H1015 H     H_    0.692692 0.372108 0.169305 0.000000
H1016 H     H_    0.661598 0.384231 0.133879 0.000000
H1017 H     H_    0.794867 0.339398 0.045121 0.000000
H1018 H     H_    0.883339 0.312708 0.046691 0.000000
H1019 H     H_    0.924498 0.301061 0.096129 0.000000
H1020 H     H_    0.876607 0.315740 0.144316 0.000000
C919  C     C_3   0.598174 0.154792 0.144404 0.000000
N307  N     N_3   0.640183 0.136327 0.125748 0.000000
C920  C     C_3   0.668056 0.097300 0.140930 0.000000
C921  C     C_R   0.717060 0.090576 0.125352 0.000000
N308  N     N_R   0.763092 0.090427 0.140209 0.000000
C922  C     C_R   0.795933 0.091417 0.116815 0.000000
C923  C     C_R   0.847139 0.099888 0.118622 0.000000
C924  C     C_R   0.872878 0.108864 0.091659 0.000000
C925  C     C_R   0.847342 0.109208 0.063925 0.000000
C926  C     C_R   0.795343 0.103382 0.063334 0.000000
C927  C     C_R   0.771004 0.091778 0.089662 0.000000
N309  N     N_R   0.720935 0.090647 0.094019 0.000000
H1021 H     H_    0.604386 0.147701 0.168224 0.000000
H1022 H     H_    0.591004 0.195189 0.140304 0.000000
H1023 H     H_    0.562511 0.135515 0.138787 0.000000
H1024 H     H_    0.664677 0.166887 0.122735 0.000000
H1025 H     H_    0.675247 0.108214 0.165212 0.000000
H1026 H     H_    0.647457 0.060399 0.138280 0.000000
H1027 H     H_    0.866298 0.101705 0.140344 0.000000
H1028 H     H_    0.912576 0.118850 0.092321 0.000000
H1029 H     H_    0.867487 0.119150 0.043383 0.000000
H1030 H     H_    0.773472 0.111857 0.043619 0.000000
C928  C     C_3   0.816169 0.216244 0.087914 0.000000
N310  N     N_3   0.777055 0.224984 0.065856 0.000000
C929  C     C_3   0.730256 0.220077 0.082512 0.000000
C930  C     C_R   0.688058 0.218193 0.061323 0.000000
N311  N     N_R   0.672946 0.262352 0.048478 0.000000
C931  C     C_R   0.652810 0.244130 0.021738 0.000000
C932  C     C_R   0.634652 0.271668 0.998298 0.000000
C933  C     C_R   0.620811 0.245343 0.971407 0.000000
C934  C     C_R   0.626076 0.192823 0.968325 0.000000
C935  C     C_R   0.644060 0.165607 0.992349 0.000000
C936  C     C_R   0.655653 0.192048 0.019221 0.000000
N312  N     N_R   0.675066 0.173645 0.044914 0.000000
H1031 H     H_    0.853967 0.216825 0.077076 0.000000
H1032 H     H_    0.812118 0.241860 0.107749 0.000000
H1033 H     H_    0.809251 0.181506 0.099278 0.000000
H1034 H     H_    0.778176 0.197602 0.048026 0.000000
H1035 H     H_    0.729166 0.185277 0.095127 0.000000
H1036 H     H_    0.727582 0.253906 0.097417 0.000000
H1037 H     H_    0.631843 0.312493 0.000533 0.000000
H1038 H     H_    0.606716 0.265960 0.952417 0.000000
H1039 H     H_    0.616415 0.173080 0.946874 0.000000
H1040 H     H_    0.650293 0.125337 0.989558 0.000000
C937  C     C_3   0.161644 0.939781 0.714208 0.000000
N313  N     N_3   0.136519 0.987669 0.717009 0.000000
C938  C     C_3   0.174276 0.027555 0.713884 0.000000
C939  C     C_R   0.149035 0.075840 0.719903 0.000000
N314  N     N_R   0.103980 0.081806 0.705050 0.000000
C940  C     C_R   0.073885 0.095614 0.728571 0.000000
C941  C     C_R   0.022762 0.089312 0.730406 0.000000
C942  C     C_R   0.998942 0.106794 0.756900 0.000000
C943  C     C_R   0.026962 0.123021 0.782258 0.000000
C944  C     C_R   0.078824 0.120654 0.781342 0.000000
C945  C     C_R   0.101286 0.105668 0.754403 0.000000
N315  N     N_R   0.150229 0.095671 0.749729 0.000000
H1041 H     H_    0.163911 0.922574 0.736865 0.000000
H1042 H     H_    0.139664 0.913945 0.698783 0.000000
H1043 H     H_    0.199333 0.945408 0.703911 0.000000
H1044 H     H_    0.121922 0.991290 0.739166 0.000000
H1045 H     H_    0.204023 0.023409 0.730679 0.000000
H1046 H     H_    0.192039 0.026069 0.691375 0.000000
H1047 H     H_    0.002086 0.070225 0.711948 0.000000
H1048 H     H_    0.958386 0.106311 0.758428 0.000000
H1049 H     H_    0.008138 0.134548 0.803302 0.000000
H1050 H     H_    0.101138 0.129907 0.800956 0.000000
C946  C     C_3   0.050928 0.245375 0.784061 0.000000
N316  N     N_3   0.102207 0.243363 0.795457 0.000000
C947  C     C_3   0.137105 0.230508 0.770579 0.000000
C948  C     C_R   0.188298 0.228505 0.783997 0.000000
N317  N     N_R   0.206140 0.272808 0.798192 0.000000
C949  C     C_R   0.226848 0.256497 0.823952 0.000000
C950  C     C_R   0.238127 0.284698 0.850302 0.000000
C951  C     C_R   0.257026 0.259397 0.874815 0.000000
C952  C     C_R   0.261865 0.206803 0.873008 0.000000
C953  C     C_R   0.246239 0.178778 0.847096 0.000000
C954  C     C_R   0.227788 0.204663 0.823053 0.000000
N318  N     N_R   0.204375 0.185104 0.797684 0.000000
H1051 H     H_    0.025274 0.224826 0.799609 0.000000
H1052 H     H_    0.038876 0.285397 0.784527 0.000000
H1053 H     H_    0.048144 0.228230 0.760522 0.000000
H1054 H     H_    0.103381 0.215583 0.811761 0.000000
H1055 H     H_    0.127479 0.195074 0.758260 0.000000
H1056 H     H_    0.134749 0.259722 0.753773 0.000000
H1057 H     H_    0.232784 0.325411 0.851809 0.000000
H1058 H     H_    0.267504 0.280618 0.895638 0.000000
H1059 H     H_    0.275873 0.187384 0.892501 0.000000
H1060 H     H_    0.245796 0.137949 0.846726 0.000000
C955  C     C_3   0.511110 0.273262 0.021851 0.000000
N319  N     N_3   0.532291 0.312607 0.042562 0.000000
C956  C     C_3   0.549943 0.289739 0.070294 0.000000
C957  C     C_R   0.567688 0.331500 0.091359 0.000000
N320  N     N_R   0.610622 0.358937 0.083767 0.000000
C958  C     C_R   0.598663 0.406401 0.093210 0.000000
C959  C     C_R   0.625388 0.450173 0.089075 0.000000
C960  C     C_R   0.599456 0.495177 0.092697 0.000000
C961  C     C_R   0.551466 0.495177 0.104963 0.000000
C962  C     C_R   0.530631 0.451177 0.115927 0.000000
C963  C     C_R   0.552905 0.407004 0.106927 0.000000
N321  N     N_R   0.532801 0.360081 0.107588 0.000000
H1061 H     H_    0.499755 0.290594 0.000266 0.000000
H1062 H     H_    0.539554 0.244241 0.016587 0.000000
H1063 H     H_    0.477612 0.255185 0.032345 0.000000
H1064 H     H_    0.503117 0.336964 0.048754 0.000000
H1065 H     H_    0.519065 0.268327 0.080951 0.000000
H1066 H     H_    0.581369 0.264494 0.064927 0.000000
H1067 H     H_    0.662716 0.448327 0.079677 0.000000
H1068 H     H_    0.614890 0.530226 0.084502 0.000000
H1069 H     H_    0.530047 0.529433 0.105427 0.000000
H1070 H     H_    0.495554 0.451056 0.128279 0.000000
C964  C     C_3   0.049385 0.637777 0.950166 0.000000
N322  N     N_3   0.103857 0.641593 0.947702 0.000000
C965  C     C_3   0.118999 0.615175 0.919672 0.000000
C966  C     C_R   0.154647 0.573166 0.924045 0.000000
N323  N     N_R   0.184407 0.566691 0.949772 0.000000
C967  C     C_R   0.216931 0.531458 0.939387 0.000000
C968  C     C_R   0.259411 0.515750 0.953839 0.000000
C969  C     C_R   0.288100 0.479109 0.938989 0.000000
C970  C     C_R   0.274236 0.459591 0.910158 0.000000
C971  C     C_R   0.232620 0.477712 0.895378 0.000000
C972  C     C_R   0.204767 0.514664 0.910212 0.000000
N324  N     N_R   0.165142 0.540288 0.899561 0.000000
H1071 H     H_    0.031754 0.653799 0.929846 0.000000
H1072 H     H_    0.037474 0.659753 0.970978 0.000000
H1073 H     H_    0.036711 0.597751 0.951810 0.000000
H1074 H     H_    0.119148 0.625245 0.966311 0.000000
H1075 H     H_    0.085418 0.598061 0.908745 0.000000
H1076 H     H_    0.136588 0.642927 0.904166 0.000000
H1077 H     H_    0.271065 0.532424 0.975717 0.000000
H1078 H     H_    0.321531 0.465647 0.949883 0.000000
H1079 H     H_    0.296617 0.430491 0.898890 0.000000
H1080 H     H_    0.222578 0.461839 0.873321 0.000000
C973  C     C_3   0.294492 0.701405 0.044389 0.000000
N325  N     N_3   0.266493 0.654975 0.036539 0.000000
C974  C     C_3   0.258952 0.627628 0.064395 0.000000
C975  C     C_R   0.249847 0.573621 0.055801 0.000000
N326  N     N_R   0.223507 0.558556 0.029360 0.000000
C976  C     C_R   0.226433 0.507485 0.030071 0.000000
C977  C     C_R   0.204050 0.472014 0.010394 0.000000
C978  C     C_R   0.213089 0.421136 0.014120 0.000000
C979  C     C_R   0.244738 0.406802 0.037231 0.000000
C980  C     C_R   0.265756 0.443069 0.057453 0.000000
C981  C     C_R   0.254452 0.493220 0.054379 0.000000
N327  N     N_R   0.269360 0.534092 0.072165 0.000000
H1081 H     H_    0.289050 0.729364 0.026449 0.000000
H1082 H     H_    0.281312 0.717198 0.066658 0.000000
H1083 H     H_    0.334744 0.692833 0.046104 0.000000
H1084 H     H_    0.289476 0.633271 0.021915 0.000000
H1085 H     H_    0.292867 0.631544 0.078688 0.000000
H1086 H     H_    0.226207 0.642172 0.077417 0.000000
H1087 H     H_    0.180976 0.483512 0.992169 0.000000
H1088 H     H_    0.196456 0.392590 0.998485 0.000000
H1089 H     H_    0.253187 0.367068 0.039442 0.000000
H1090 H     H_    0.291734 0.431835 0.074148 0.000000
C982  C     C_3   0.775479 0.659781 0.900079 0.000000
N328  N     N_3   0.799218 0.663976 0.870245 0.000000
C983  C     C_3   0.833081 0.622289 0.862927 0.000000
C984  C     C_R   0.818049 0.597472 0.832755 0.000000
N329  N     N_R   0.768745 0.582092 0.827376 0.000000
C985  C     C_R   0.772677 0.552771 0.801691 0.000000
C986  C     C_R   0.740277 0.515006 0.790452 0.000000
C987  C     C_R   0.753343 0.489293 0.763863 0.000000
C988  C     C_R   0.791755 0.508663 0.746185 0.000000
C989  C     C_R   0.823707 0.545803 0.758810 0.000000
C990  C     C_R   0.819096 0.557747 0.789449 0.000000
N330  N     N_R   0.850890 0.584274 0.808837 0.000000
H1091 H     H_    0.796184 0.682551 0.917725 0.000000
H1092 H     H_    0.736845 0.673700 0.899647 0.000000
H1093 H     H_    0.772956 0.620639 0.906554 0.000000
H1094 H     H_    0.821211 0.697126 0.871221 0.000000
H1095 H     H_    0.872410 0.637419 0.861771 0.000000
H1096 H     H_    0.831926 0.593254 0.880523 0.000000
H1097 H     H_    0.709405 0.500219 0.803411 0.000000
H1098 H     H_    0.731733 0.455921 0.756626 0.000000
H1099 H     H_    0.797556 0.494157 0.723024 0.000000
H1100 H     H_    0.848929 0.566255 0.744481 0.000000
C991  C     C_3   0.517094 0.141769 0.024854 0.000000
N331  N     N_3   0.507680 0.165386 0.054799 0.000000
C992  C     C_3   0.551528 0.163651 0.074752 0.000000
C993  C     C_R   0.557864 0.111065 0.084541 0.000000
N332  N     N_R   0.518567 0.084094 0.097434 0.000000
C994  C     C_R   0.530543 0.036221 0.089550 0.000000
C995  C     C_R   0.496683 0.998981 0.079694 0.000000
C996  C     C_R   0.514870 0.955810 0.065091 0.000000
C997  C     C_R   0.566195 0.950528 0.061204 0.000000
C998  C     C_R   0.599534 0.989549 0.069760 0.000000
C999  C     C_R   0.579352 0.034455 0.079757 0.000000
N333  N     N_R   0.598504 0.081839 0.075967 0.000000
H1101 H     H_    0.513054 0.099866 0.026153 0.000000
H1102 H     H_    0.488323 0.154413 0.008622 0.000000
H1103 H     H_    0.554482 0.153294 0.016352 0.000000
H1104 H     H_    0.480373 0.141700 0.063937 0.000000
H1105 H     H_    0.585534 0.176873 0.062934 0.000000
H1106 H     H_    0.545056 0.188742 0.095173 0.000000
H1107 H     H_    0.456960 0.005755 0.079473 0.000000
H1108 H     H_    0.489050 0.926316 0.056345 0.000000
H1109 H     H_    0.579605 0.917391 0.049172 0.000000
H1110 H     H_    0.639202 0.986332 0.065555 0.000000
C1000 C     C_3   0.404273 0.251548 0.205936 0.000000
N334  N     N_3   0.421392 0.211782 0.184877 0.000000
C1001 C     C_3   0.469837 0.224479 0.171050 0.000000
C1002 C     C_R   0.461797 0.224677 0.137703 0.000000
N335  N     N_R   0.445700 0.181174 0.121229 0.000000
C1003 C     C_R   0.421623 0.201248 0.097299 0.000000
C1004 C     C_R   0.395286 0.176344 0.073788 0.000000
C1005 C     C_R   0.373099 0.205436 0.052004 0.000000
C1006 C     C_R   0.377619 0.258288 0.053758 0.000000
C1007 C     C_R   0.404714 0.282788 0.077254 0.000000
C1008 C     C_R   0.425722 0.253240 0.098843 0.000000
N336  N     N_R   0.451817 0.269528 0.123826 0.000000
H1111 H     H_    0.390723 0.283272 0.192825 0.000000
H1112 H     H_    0.371919 0.236606 0.219250 0.000000
H1113 H     H_    0.434562 0.263935 0.221881 0.000000
H1114 H     H_    0.394332 0.208259 0.167579 0.000000
H1115 H     H_    0.483598 0.261769 0.179589 0.000000
H1116 H     H_    0.498414 0.196368 0.176495 0.000000
H1117 H     H_    0.392714 0.135267 0.071833 0.000000
H1118 H     H_    0.352402 0.186785 0.033273 0.000000
H1119 H     H_    0.360395 0.280395 0.036431 0.000000
H1120 H     H_    0.409087 0.323770 0.078465 0.000000

loop_
_geom_bond_atom_site_label_1
_geom_bond_atom_site_label_2
_geom_bond_distance
_geom_bond_site_symmetry_2
_ccdc_geom_bond_type
Zn1   N17   2.247 .      S
Zn1   N186  2.082 .      S
Zn1   N200  2.124 .      S
Zn1   N281  2.030 .      S
Zn2   N2    2.139 .      S
Zn2   N15   1.991 .      S
Zn2   N44   2.213 .      S
Zn2   N75   2.107 .      S
Zn3   N5    2.138 .      S
Zn3   N8    2.076 .      S
Zn3   N108  2.086 .      S
Zn3   N317  2.058 .      S
Zn4   N9    2.118 .      S
Zn4   N12   2.036 .      S
Zn4   N206  2.179 .      S
Zn4   N324  2.102 .      S
Zn5   N11   2.082 .      S
Zn5   N14   2.027 .      S
Zn5   N18   2.101 .      S
Zn5   N225  2.092 .      S
Zn6   N21   2.090 .      S
Zn6   N24   2.187 .      S
Zn6   N41   2.118 .      S
Zn6   N92   2.065 .      S
Zn7   N26   2.111 .      S
Zn7   N30   2.150 .      S
Zn7   N51   2.093 .      S
Zn7   N177  2.141 .      S
Zn8   N27   2.126 .      S
Zn8   N33   2.146 .      S
Zn8   N56   2.153 .      S
Zn8   N234  2.109 .      S
Zn9   N36   2.113 .      S
Zn9   N66   2.162 .      S
Zn9   N143  2.091 .      S
Zn9   N168  2.144 .      S
Zn10  N29   2.229 .      S
Zn10  N38   2.109 .      S
Zn10  N146  2.102 .      S
Zn10  N171  2.065 .      S
Zn11  N42   2.132 .      S
Zn11  N45   2.005 .      S
Zn11  N47   2.223 .      S
Zn11  N273  2.120 .      S
Zn12  N50   2.123 .      S
Zn12  N53   2.159 .      S
Zn12  N128  2.185 .      S
Zn12  N288  2.135 .      S
Zn13  N57   2.213 .      S
Zn13  N59   2.148 .      S
Zn13  N126  2.031 .      S
Zn13  N327  2.156 .      S
Zn14  N48   2.172 .      S
Zn14  N62   2.128 .      S
Zn14  N65   2.144 .      S
Zn14  N195  2.084 .      S
Zn15  N63   2.149 .      S
Zn15  N69   2.247 .      S
Zn15  N72   2.197 .      S
Zn15  N83   2.218 .      S
Zn16  N68   2.204 .      S
Zn16  N74   2.124 .      S
Zn16  N77   2.106 .      S
Zn16  N210  2.112 .      S
Zn17  N81   2.134 .      S
Zn17  N95   2.111 .      S
Zn17  N104  2.156 .      S
Zn17  N213  2.154 .      S
Zn18  N35   2.113 .      S
Zn18  N84   2.158 .      S
Zn18  N87   2.101 .      S
Zn18  N161  2.082 .      S
Zn19  N32   2.200 .      S
Zn19  N39   2.116 .      S
Zn19  N89   2.184 .      S
Zn19  N164  2.096 .      S
Zn20  N93   2.104 .      S
Zn20  N96   2.117 .      S
Zn20  N99   2.088 .      S
Zn20  N149  2.095 .      S
Zn21  N215  2.115 .      S
Zn21  N236  2.137 .      S
Zn21  N290  2.159 .      S
Zn21  N306  2.030 .      S
Zn22  N102  2.159 .      S
Zn22  N105  2.076 .      S
Zn22  N107  2.092 .      S
Zn22  N218  2.067 .      S
Zn23  N110  2.069 .      S
Zn23  N114  2.077 .      S
Zn23  N117  2.000 .      S
Zn23  N119  2.109 .      S
Zn24  N122  1.973 .      S
Zn24  N125  2.135 .      S
Zn24  N129  2.103 .      S
Zn24  N131  2.088 .      S
Zn25  N116  2.068 .      S
Zn25  N132  2.149 .      S
Zn25  N134  2.088 .      S
Zn25  N137  2.023 .      S
Zn26  N140  2.117 .      S
Zn26  N144  2.023 .      S
Zn26  N147  2.136 .      S
Zn26  N150  2.115 .      S
Zn27  N120  2.205 .      S
Zn27  N123  2.010 .      S
Zn27  N153  2.112 .      S
Zn27  N155  2.158 .      S
Zn28  N135  2.068 .      S
Zn28  N159  2.044 .      S
Zn28  N162  2.054 .      S
Zn28  N165  2.077 .      S
Zn29  N138  2.053 .      S
Zn29  N167  2.074 .      S
Zn29  N170  2.039 .      S
Zn29  N174  2.198 .      S
Zn30  N111  2.029 .      S
Zn30  N176  2.121 1_655  S
Zn30  N179  2.157 .      S
Zn30  N183  2.077 .      S
Zn31  N185  2.065 .      S
Zn31  N189  2.094 .      S
Zn31  N192  2.022 .      S
Zn31  N194  2.088 .      S
Zn32  N80   2.158 .      S
Zn32  N86   2.094 .      S
Zn32  N90   2.093 .      S
Zn32  N198  2.092 .      S
Zn33  N71   2.185 .      S
Zn33  N101  2.123 .      S
Zn33  N201  2.068 1_655  S
Zn33  N204  2.083 .      S
Zn34  N203  2.092 .      S
Zn34  N207  2.123 .      S
Zn34  N269  2.061 .      S
Zn34  N330  2.133 .      S
Zn35  N6    2.077 .      S
Zn35  N20   2.101 .      S
Zn35  N209  2.105 .      S
Zn35  N212  2.125 .      S
Zn36  N180  2.188 .      S
Zn36  N216  2.109 .      S
Zn36  N302  2.083 .      S
Zn36  N308  2.038 .      S
Zn37  N98   2.102 .      S
Zn37  N188  2.118 .      S
Zn37  N219  2.154 .      S
Zn37  N314  2.112 .      S
Zn38  N221  2.144 .      S
Zn38  N224  2.003 .      S
Zn38  N227  2.192 .      S
Zn38  N231  2.098 .      S
Zn39  N113  2.053 .      S
Zn39  N233  2.153 1_655  S
Zn39  N237  2.132 .      S
Zn39  N239  2.072 .      S
Zn40  N152  2.083 1_556  S
Zn40  N243  2.120 .      S
Zn40  N245  2.103 .      S
Zn40  N249  2.168 .      S
Zn41  N156  2.063 1_556  S
Zn41  N251  2.062 .      S
Zn41  N255  2.085 1_556  S
Zn41  N257  2.035 .      S
Zn42  N182  2.100 .      S
Zn42  N252  2.175 .      S
Zn42  N261  2.063 1_655  S
Zn42  N264  2.224 .      S
Zn43  N191  2.216 .      S
Zn43  N228  2.163 .      S
Zn43  N267  2.033 .      S
Zn43  N270  2.056 .      S
Zn44  N258  2.074 .      S
Zn44  N266  2.113 .      S
Zn44  N272  2.133 .      S
Zn44  N276  2.124 .      S
Zn45  N240  2.063 .      S
Zn45  N248  2.089 .      S
Zn45  N263  2.056 .      S
Zn45  N279  2.066 1_655  S
Zn46  N3    2.205 .      S
Zn46  N141  2.084 .      S
Zn46  N197  2.056 .      S
Zn46  N282  1.992 .      S
Zn47  N222  2.137 1_554  S
Zn47  N260  2.090 .      S
Zn47  N284  2.170 1_554  S
Zn47  N287  2.191 .      S
Zn48  N158  2.024 .      S
Zn48  N291  2.089 .      S
Zn48  N293  2.125 .      S
Zn48  N299  2.092 .      S
Zn49  N173  2.201 .      S
Zn49  N297  2.151 .      S
Zn49  N300  2.156 .      S
Zn49  N303  2.114 .      S
Zn50  N242  2.115 .      S
Zn50  N305  2.123 .      S
Zn50  N311  2.123 .      S
Zn50  N320  2.078 .      S
Zn51  N254  2.136 .      S
Zn51  N309  2.042 .      S
Zn51  N312  2.125 .      S
Zn51  N333  2.097 .      S
Zn52  N23   2.143 .      S
Zn52  N230  2.138 .      S
Zn52  N315  2.124 .      S
Zn52  N318  2.078 .      S
Zn53  N60   2.181 .      S
Zn53  N294  2.106 .      S
Zn53  N321  2.042 .      S
Zn53  N336  2.068 .      S
Zn54  N278  2.059 1_556  S
Zn54  N285  2.141 .      S
Zn54  N323  2.098 .      S
Zn54  N326  2.148 1_556  S
Zn55  N78   2.102 .      S
Zn55  N246  2.129 .      S
Zn55  N275  2.149 .      S
Zn55  N329  2.045 .      S
Zn56  N54   2.114 .      S
Zn56  N296  2.112 .      S
Zn56  N332  2.102 .      S
Zn56  N335  2.114 .      S
C1    N1    1.449 .      S
C1    H1    1.089 .      S
C1    H2    1.100 .      S
C1    H3    1.108 .      S
N1    C2    1.431 .      S
N1    H4    1.038 .      S
C2    C3    1.459 .      S
C2    H5    1.094 .      S
C2    H6    1.096 .      S
C5    H7    1.069 .      S
C6    H8    1.065 .      S
C7    H9    1.078 .      S
C8    H10   1.063 .      S
C10   N4    1.450 .      S
C10   H11   1.104 .      S
C10   H12   1.089 .      S
C10   H13   1.103 .      S
N4    C11   1.443 .      S
N4    H14   1.037 .      S
C11   C12   1.486 .      S
C11   H15   1.098 .      S
C11   H16   1.104 .      S
C14   H17   1.058 .      S
C15   H18   1.081 .      S
C16   H19   1.081 .      S
C17   H20   1.070 .      S
C19   N7    1.453 .      S
C19   H21   1.109 .      S
C19   H22   1.108 .      S
C19   H23   1.109 .      S
N7    C20   1.451 .      S
N7    H24   1.039 .      S
C20   C21   1.492 .      S
C20   H25   1.109 .      S
C20   H26   1.109 .      S
C23   H27   1.030 .      S
C24   H28   1.081 .      S
C25   H29   1.076 .      S
C26   H30   1.033 .      S
C28   N10   1.456 .      S
C28   H31   1.108 .      S
C28   H32   1.108 .      S
C28   H33   1.107 .      S
N10   C29   1.442 .      S
N10   H34   1.037 .      S
C29   C30   1.495 .      S
C29   H35   1.108 .      S
C29   H36   1.105 .      S
C32   H37   1.060 .      S
C33   H38   1.051 .      S
C34   H39   1.075 .      S
C35   H40   1.060 .      S
C37   N13   1.448 .      S
C37   H41   1.107 .      S
C37   H42   1.108 .      S
C37   H43   1.108 .      S
N13   C38   1.454 .      S
N13   H44   1.043 .      S
C38   C39   1.469 .      S
C38   H45   1.082 .      S
C38   H46   1.095 .      S
C41   H47   1.072 .      S
C42   H48   1.081 .      S
C43   H49   1.079 .      S
C44   H50   1.080 .      S
C46   N16   1.445 .      S
C46   H51   1.090 .      S
C46   H52   1.105 .      S
C46   H53   1.092 .      S
N16   C47   1.429 .      S
N16   H54   1.034 .      S
C47   C48   1.458 .      S
C47   H55   1.104 .      S
C47   H56   1.100 .      S
C50   H57   1.047 .      S
C51   H58   1.063 .      S
C52   H59   1.069 .      S
C53   H60   1.065 .      S
C55   N19   1.454 .      S
C55   H61   1.106 .      S
C55   H62   1.108 .      S
C55   H63   1.108 .      S
N19   C56   1.454 .      S
N19   H64   1.037 .      S
C56   C57   1.468 .      S
C56   H65   1.064 .      S
C56   H66   1.089 .      S
C59   H67   1.069 .      S
C60   H68   1.081 .      S
C61   H69   1.081 .      S
C62   H70   1.078 .      S
C64   N22   1.452 .      S
C64   H71   1.094 .      S
C64   H72   1.102 .      S
C64   H73   1.102 .      S
N22   C65   1.429 .      S
N22   H74   1.024 .      S
C65   C66   1.451 .      S
C65   H75   1.097 .      S
C65   H76   1.108 .      S
C68   H77   1.072 .      S
C69   H78   1.080 .      S
C70   H79   1.081 .      S
C71   H80   1.065 .      S
C73   N25   1.448 .      S
C73   H81   1.094 .      S
C73   H82   1.108 .      S
C73   H83   1.107 .      S
N25   C74   1.430 .      S
N25   H84   1.031 .      S
C74   C75   1.479 .      S
C74   H85   1.103 .      S
C74   H86   1.094 .      S
C77   H87   1.065 .      S
C78   H88   1.069 .      S
C79   H89   1.077 .      S
C80   H90   1.073 .      S
C82   N28   1.452 .      S
C82   H91   1.098 .      S
C82   H92   1.105 .      S
C82   H93   1.105 .      S
N28   C83   1.459 .      S
N28   H94   1.042 .      S
C83   C84   1.486 .      S
C83   H95   1.101 .      S
C83   H96   1.091 .      S
C86   H97   1.067 .      S
C87   H98   1.081 .      S
C88   H99   1.081 .      S
C89   H100  1.076 .      S
C91   N31   1.452 .      S
C91   H101  1.105 .      S
C91   H102  1.106 .      S
C91   H103  1.106 .      S
N31   C92   1.451 .      S
N31   H104  1.040 .      S
C92   C93   1.482 .      S
C92   H105  1.109 .      S
C92   H106  1.094 .      S
C95   H107  1.055 .      S
C96   H108  1.081 .      S
C97   H109  1.081 .      S
C98   H110  1.064 .      S
C100  N34   1.450 .      S
C100  H111  1.109 .      S
C100  H112  1.107 .      S
C100  H113  1.108 .      S
N34   C101  1.459 .      S
N34   H114  1.044 .      S
C101  C102  1.480 .      S
C101  H115  1.106 .      S
C101  H116  1.096 .      S
C104  H117  1.070 .      S
C105  H118  1.073 .      S
C106  H119  1.054 .      S
C107  H120  1.075 .      S
C109  N37   1.433 .      S
C109  H121  1.075 .      S
C109  H122  1.102 .      S
C109  H123  1.091 .      S
N37   C110  1.445 .      S
N37   H124  1.039 .      S
C110  C111  1.449 .      S
C110  H125  1.109 .      S
C110  H126  1.096 .      S
C113  H127  1.062 .      S
C114  H128  1.081 .      S
C115  H129  1.078 .      S
C116  H130  1.064 .      S
C118  N40   1.459 .      S
C118  H131  1.104 .      S
C118  H132  1.103 .      S
C118  H133  1.109 .      S
N40   C119  1.442 .      S
N40   H134  1.043 .      S
C119  C120  1.479 1_565  S
C119  H135  1.102 .      S
C119  H136  1.105 .      S
C120  C119  1.479 1_545  S
C122  H137  1.069 .      S
C123  H138  1.081 .      S
C124  H139  1.081 .      S
C125  H140  1.067 1_545  S
H140  C125  1.067 1_565  S
C127  N43   1.425 .      S
C127  H141  1.092 .      S
C127  H142  1.104 .      S
C127  H143  1.103 .      S
N43   C128  1.450 .      S
N43   H144  1.035 .      S
C128  C129  1.415 .      S
C128  H145  1.088 .      S
C128  H146  1.097 .      S
C131  H147  1.051 .      S
C132  H148  1.079 .      S
C133  H149  1.081 .      S
C134  H150  1.068 .      S
C136  N46   1.456 .      S
C136  H151  1.105 .      S
C136  H152  1.106 .      S
C136  H153  1.094 .      S
N46   C137  1.442 .      S
N46   H154  1.040 .      S
C137  C138  1.482 .      S
C137  H155  1.109 .      S
C137  H156  1.098 .      S
C140  H157  1.076 1_565  S
C141  H158  1.076 .      S
C142  H159  1.081 .      S
C143  H160  1.068 .      S
H157  C140  1.076 1_545  S
C145  N49   1.447 .      S
C145  H161  1.088 .      S
C145  H162  1.103 .      S
C145  H163  1.093 .      S
N49   C146  1.449 .      S
N49   H164  1.041 .      S
C146  C147  1.467 .      S
C146  H165  1.090 .      S
C146  H166  1.091 .      S
C149  H167  1.060 1_565  S
C150  H168  1.080 .      S
C151  H169  1.081 .      S
C152  H170  1.080 .      S
H167  C149  1.060 1_545  S
C154  N52   1.450 .      S
C154  H171  1.102 .      S
C154  H172  1.096 1_565  S
C154  H173  1.095 1_565  S
N52   C155  1.435 .      S
N52   H174  1.026 .      S
C155  C156  1.461 1_565  S
C155  H175  1.099 1_565  S
C155  H176  1.107 .      S
C156  C155  1.461 1_545  S
C158  H177  1.074 1_545  S
C159  H178  1.079 .      S
C160  H179  1.081 .      S
C161  H180  1.075 .      S
H172  C154  1.096 1_545  S
H173  C154  1.095 1_545  S
H175  C155  1.099 1_545  S
H177  C158  1.074 1_565  S
C163  N55   1.451 .      S
C163  H181  1.106 .      S
C163  H182  1.109 .      S
C163  H183  1.108 .      S
N55   C164  1.455 .      S
N55   H184  1.042 .      S
C164  C165  1.472 .      S
C164  H185  1.094 .      S
C164  H186  1.097 .      S
C167  H187  1.072 .      S
C168  H188  1.080 .      S
C169  H189  1.074 .      S
C170  H190  1.066 .      S
C172  N58   1.452 .      S
C172  H191  1.108 .      S
C172  H192  1.109 .      S
C172  H193  1.109 .      S
N58   C173  1.451 .      S
N58   H194  1.043 .      S
C173  C174  1.489 .      S
C173  H195  1.105 .      S
C173  H196  1.107 .      S
C176  H197  1.075 .      S
C177  H198  1.081 .      S
C178  H199  1.081 .      S
C179  H200  1.070 .      S
C181  N61   1.458 .      S
C181  H201  1.108 .      S
C181  H202  1.099 .      S
C181  H203  1.100 .      S
N61   C182  1.450 .      S
N61   H204  1.040 .      S
C182  C183  1.464 .      S
C182  H205  1.101 .      S
C182  H206  1.083 .      S
C185  H207  1.074 .      S
C186  H208  1.070 .      S
C187  H209  1.065 .      S
C188  H210  1.062 .      S
C190  N64   1.460 .      S
C190  H211  1.108 .      S
C190  H212  1.107 .      S
C190  H213  1.104 .      S
N64   C191  1.459 .      S
N64   H214  1.041 .      S
C191  C192  1.503 .      S
C191  H215  1.093 .      S
C191  H216  1.095 .      S
C194  H217  1.066 .      S
C195  H218  1.081 .      S
C196  H219  1.081 .      S
C197  H220  1.080 .      S
C199  N67   1.448 .      S
C199  H221  1.104 .      S
C199  H222  1.103 .      S
C199  H223  1.105 .      S
N67   C200  1.456 .      S
N67   H224  1.043 .      S
C200  C201  1.468 .      S
C200  H225  1.069 .      S
C200  H226  1.090 .      S
C203  H227  1.076 .      S
C204  H228  1.081 .      S
C205  H229  1.080 .      S
C206  H230  1.068 .      S
C208  N70   1.437 .      S
C208  H231  1.100 .      S
C208  H232  1.106 .      S
C208  H233  1.100 .      S
N70   C209  1.438 .      S
N70   H234  1.043 .      S
C209  C210  1.459 .      S
C209  H235  1.102 .      S
C209  H236  1.094 .      S
C212  H237  1.079 .      S
C213  H238  1.081 .      S
C214  H239  1.081 .      S
C215  H240  1.078 .      S
C217  N73   1.456 .      S
C217  H241  1.108 .      S
C217  H242  1.108 .      S
C217  H243  1.108 .      S
N73   C218  1.455 .      S
N73   H244  1.044 .      S
C218  C219  1.491 .      S
C218  H245  1.107 .      S
C218  H246  1.102 .      S
C221  H247  1.046 .      S
C222  H248  1.075 .      S
C223  H249  1.052 .      S
C224  H250  1.072 .      S
C226  N76   1.458 .      S
C226  H251  1.101 .      S
C226  H252  1.097 .      S
C226  H253  1.086 .      S
N76   C227  1.452 .      S
N76   H254  1.038 .      S
C227  C228  1.471 .      S
C227  H255  1.100 .      S
C227  H256  1.108 .      S
C230  H257  1.073 .      S
C231  H258  1.080 .      S
C232  H259  1.081 .      S
C233  H260  1.076 .      S
C235  N79   1.450 .      S
C235  H261  1.096 .      S
C235  H262  1.098 .      S
C235  H263  1.057 .      S
N79   C236  1.444 .      S
N79   H264  1.036 .      S
C236  C237  1.434 .      S
C236  H265  1.066 .      S
C236  H266  1.102 .      S
C239  H267  1.061 .      S
C240  H268  1.081 .      S
C241  H269  1.081 .      S
C242  H270  1.071 .      S
C244  N82   1.453 .      S
C244  H271  1.109 .      S
C244  H272  1.108 .      S
C244  H273  1.109 .      S
N82   C245  1.458 .      S
N82   H274  1.040 .      S
C245  C246  1.471 .      S
C245  H275  1.083 .      S
C245  H276  1.096 .      S
C248  H277  1.070 .      S
C249  H278  1.080 .      S
C250  H279  1.081 .      S
C251  H280  1.071 .      S
C253  N85   1.457 .      S
C253  H281  1.084 .      S
C253  H282  1.098 .      S
C253  H283  1.105 .      S
N85   C254  1.460 .      S
N85   H284  1.036 .      S
C254  C255  1.462 .      S
C254  H285  1.098 .      S
C254  H286  1.096 .      S
C257  H287  1.062 .      S
C258  H288  1.080 .      S
C259  H289  1.081 .      S
C260  H290  1.081 .      S
C262  N88   1.447 .      S
C262  H291  1.108 .      S
C262  H292  1.101 .      S
C262  H293  1.105 .      S
N88   C263  1.457 .      S
N88   H294  1.038 .      S
C263  C264  1.486 .      S
C263  H295  1.106 .      S
C263  H296  1.085 .      S
C266  H297  1.076 .      S
C267  H298  1.081 .      S
C268  H299  1.081 .      S
C269  H300  1.081 .      S
C271  N91   1.440 1_565  S
C271  H301  1.099 1_565  S
C271  H302  1.107 .      S
C271  H303  1.107 .      S
N91   C271  1.440 1_545  S
N91   C272  1.444 .      S
N91   H304  1.040 1_545  S
C272  C273  1.456 .      S
C272  H305  1.090 .      S
C272  H306  1.065 .      S
C275  H307  1.069 .      S
C276  H308  1.079 .      S
C277  H309  1.081 .      S
C278  H310  1.077 .      S
H301  C271  1.099 1_545  S
H304  N91   1.040 1_565  S
C280  N94   1.456 .      S
C280  H311  1.107 .      S
C280  H312  1.106 .      S
C280  H313  1.109 .      S
N94   C281  1.461 .      S
N94   H314  1.044 .      S
C281  C282  1.474 .      S
C281  H315  1.092 .      S
C281  H316  1.075 .      S
C284  H317  1.073 .      S
C285  H318  1.081 .      S
C286  H319  1.081 .      S
C287  H320  1.068 .      S
C289  N97   1.421 .      S
C289  H321  1.102 .      S
C289  H322  1.076 .      S
C289  H323  1.084 .      S
N97   C290  1.430 .      S
N97   H324  1.035 .      S
C290  C291  1.437 .      S
C290  H325  1.099 .      S
C290  H326  1.092 .      S
C293  H327  1.072 .      S
C294  H328  1.072 .      S
C295  H329  1.073 .      S
C296  H330  1.064 .      S
C298  N100  1.452 .      S
C298  H331  1.108 .      S
C298  H332  1.109 .      S
C298  H333  1.109 .      S
N100  C299  1.455 .      S
N100  H334  1.041 .      S
C299  C300  1.495 .      S
C299  H335  1.097 .      S
C299  H336  1.106 .      S
C302  H337  1.078 .      S
C303  H338  1.081 .      S
C304  H339  1.081 .      S
C305  H340  1.063 .      S
C307  N103  1.453 .      S
C307  H341  1.109 .      S
C307  H342  1.109 .      S
C307  H343  1.109 .      S
N103  C308  1.453 .      S
N103  H344  1.043 .      S
C308  C309  1.487 .      S
C308  H345  1.108 .      S
C308  H346  1.097 .      S
C311  H347  1.047 .      S
C312  H348  1.069 .      S
C313  H349  1.049 .      S
C314  H350  1.076 .      S
C316  N106  1.446 1_655  S
C316  H351  1.107 .      S
C316  H352  1.108 .      S
C316  H353  1.099 .      S
N106  C316  1.446 1_455  S
N106  C317  1.447 .      S
N106  H354  1.039 .      S
C317  C318  1.458 .      S
C317  H355  1.099 .      S
C317  H356  1.100 .      S
C320  H357  1.063 .      S
C321  H358  1.053 .      S
C322  H359  1.040 .      S
C323  H360  1.064 .      S
C325  N109  1.454 1_455  S
C325  H361  1.101 .      S
C325  H362  1.106 .      S
C325  H363  1.100 .      S
N109  C325  1.454 1_655  S
N109  C326  1.447 .      S
N109  H364  1.037 .      S
C326  C327  1.496 .      S
C326  H365  1.079 .      S
C326  H366  1.098 .      S
C329  H367  1.071 .      S
C330  H368  1.041 .      S
C331  H369  1.081 .      S
C332  H370  1.067 .      S
C334  N112  1.439 .      S
C334  H371  1.093 .      S
C334  H372  1.106 .      S
C334  H373  1.094 .      S
N112  C335  1.440 .      S
N112  H374  1.037 .      S
C335  C336  1.461 .      S
C335  H375  1.096 .      S
C335  H376  1.095 .      S
C338  H377  1.072 .      S
C339  H378  1.081 .      S
C340  H379  1.081 .      S
C341  H380  1.059 .      S
C343  N115  1.454 .      S
C343  H381  1.107 .      S
C343  H382  1.106 .      S
C343  H383  1.100 .      S
N115  C344  1.458 .      S
N115  H384  1.041 .      S
C344  C345  1.477 .      S
C344  H385  1.095 .      S
C344  H386  1.105 .      S
C347  H387  1.072 .      S
C348  H388  1.081 .      S
C349  H389  1.081 .      S
C350  H390  1.075 .      S
C352  N118  1.449 .      S
C352  H391  1.102 .      S
C352  H392  1.099 .      S
C352  H393  1.094 .      S
N118  C353  1.444 .      S
N118  H394  1.028 .      S
C353  C354  1.479 .      S
C353  H395  1.087 .      S
C353  H396  1.090 .      S
C356  H397  1.063 .      S
C357  H398  1.065 .      S
C358  H399  1.063 .      S
C359  H400  1.058 .      S
C361  N121  1.440 .      S
C361  H401  1.105 .      S
C361  H402  1.083 .      S
C361  H403  1.097 .      S
N121  C362  1.446 .      S
N121  H404  1.038 .      S
C362  C363  1.470 .      S
C362  H405  1.099 .      S
C362  H406  1.107 .      S
C365  H407  1.057 .      S
C366  H408  1.068 .      S
C367  H409  1.081 .      S
C368  H410  1.048 .      S
C370  N124  1.448 .      S
C370  H411  1.109 .      S
C370  H412  1.108 .      S
C370  H413  1.104 .      S
N124  C371  1.441 .      S
N124  H414  1.043 .      S
C371  C372  1.485 .      S
C371  H415  1.107 .      S
C371  H416  1.085 .      S
C374  H417  1.064 .      S
C375  H418  1.080 .      S
C376  H419  1.081 .      S
C377  H420  1.075 .      S
C379  N127  1.458 .      S
C379  H421  1.106 .      S
C379  H422  1.109 .      S
C379  H423  1.105 .      S
N127  C380  1.434 .      S
N127  H424  1.042 .      S
C380  C381  1.479 .      S
C380  H425  1.105 .      S
C380  H426  1.105 .      S
C383  H427  1.063 .      S
C384  H428  1.078 .      S
C385  H429  1.080 .      S
C386  H430  1.056 .      S
C388  N130  1.450 .      S
C388  H431  1.092 .      S
C388  H432  1.106 .      S
C388  H433  1.099 .      S
N130  C389  1.442 .      S
N130  H434  1.035 .      S
C389  C390  1.486 .      S
C389  H435  1.103 .      S
C389  H436  1.092 .      S
C392  H437  1.067 .      S
C393  H438  1.073 .      S
C394  H439  1.080 .      S
C395  H440  1.040 .      S
C397  N133  1.455 .      S
C397  H441  1.106 .      S
C397  H442  1.100 .      S
C397  H443  1.106 .      S
N133  C398  1.453 .      S
N133  H444  1.039 .      S
C398  C399  1.512 .      S
C398  H445  1.086 .      S
C398  H446  1.104 .      S
C401  H447  1.055 .      S
C402  H448  1.081 .      S
C403  H449  1.077 .      S
C404  H450  1.065 .      S
C406  N136  1.436 .      S
C406  H451  1.104 .      S
C406  H452  1.100 .      S
C406  H453  1.093 .      S
N136  C407  1.433 .      S
N136  H454  1.035 .      S
C407  C408  1.440 .      S
C407  H455  1.076 .      S
C407  H456  1.106 .      S
C410  H457  1.052 .      S
C411  H458  1.070 .      S
C412  H459  1.072 .      S
C413  H460  1.064 .      S
C415  N139  1.454 .      S
C415  H461  1.109 .      S
C415  H462  1.108 .      S
C415  H463  1.108 .      S
N139  C416  1.453 .      S
N139  H464  1.042 .      S
C416  C417  1.500 .      S
C416  H465  1.095 .      S
C416  H466  1.082 .      S
C419  H467  1.035 .      S
C420  H468  1.080 .      S
C421  H469  1.081 .      S
C422  H470  1.063 .      S
C424  N142  1.423 .      S
C424  H471  1.071 .      S
C424  H472  1.093 .      S
C424  H473  1.105 .      S
N142  C425  1.419 .      S
N142  H474  1.019 .      S
C425  C426  1.449 .      S
C425  H475  1.088 .      S
C425  H476  1.087 .      S
C428  H477  1.079 .      S
C429  H478  1.081 .      S
C430  H479  1.081 .      S
C431  H480  1.074 .      S
C433  N145  1.447 .      S
C433  H481  1.100 .      S
C433  H482  1.077 .      S
C433  H483  1.105 .      S
N145  C434  1.439 .      S
N145  H484  1.035 .      S
C434  C435  1.465 .      S
C434  H485  1.082 .      S
C434  H486  1.102 .      S
C437  H487  1.080 .      S
C438  H488  1.081 .      S
C439  H489  1.081 .      S
C440  H490  1.071 .      S
C442  N148  1.452 .      S
C442  H491  1.109 .      S
C442  H492  1.109 1_565  S
C442  H493  1.107 .      S
N148  C443  1.451 .      S
N148  H494  1.038 .      S
C443  C444  1.488 .      S
C443  H495  1.106 .      S
C443  H496  1.107 1_565  S
C446  H497  1.060 1_565  S
C447  H498  1.068 .      S
C448  H499  1.080 .      S
C449  H500  1.048 .      S
H492  C442  1.109 1_545  S
H496  C443  1.107 1_545  S
H497  C446  1.060 1_545  S
C451  N151  1.451 .      S
C451  H501  1.108 1_554  S
C451  H502  1.110 1_554  S
C451  H503  1.109 .      S
N151  C452  1.449 .      S
N151  H504  1.039 1_554  S
C452  C453  1.482 .      S
C452  H505  1.109 .      S
C452  H506  1.096 1_554  S
N152  Zn40  2.083 1_554  S
C455  H507  1.050 .      S
C456  H508  1.079 .      S
C457  H509  1.060 .      S
C458  H510  1.052 .      S
H501  C451  1.108 1_556  S
H502  C451  1.110 1_556  S
H504  N151  1.039 1_556  S
H506  C452  1.096 1_556  S
C460  N154  1.454 .      S
C460  H511  1.109 .      S
C460  H512  1.109 .      S
C460  H513  1.107 .      S
N154  C461  1.451 .      S
N154  H514  1.040 .      S
C461  C462  1.483 .      S
C461  H515  1.100 .      S
C461  H516  1.088 .      S
C464  H517  1.058 .      S
C465  H518  1.069 .      S
C466  H519  1.080 .      S
C467  H520  1.074 .      S
N156  Zn41  2.063 1_554  S
C469  N157  1.453 .      S
C469  H521  1.109 .      S
C469  H522  1.109 .      S
C469  H523  1.108 .      S
N157  C470  1.453 .      S
N157  H524  1.043 .      S
C470  C471  1.493 .      S
C470  H525  1.107 .      S
C470  H526  1.109 .      S
C473  H527  1.064 .      S
C474  H528  1.073 .      S
C475  H529  1.064 .      S
C476  H530  1.071 .      S
C478  N160  1.444 .      S
C478  H531  1.108 .      S
C478  H532  1.102 .      S
C478  H533  1.105 .      S
N160  C479  1.460 .      S
N160  H534  1.042 .      S
C479  C480  1.477 .      S
C479  H535  1.106 .      S
C479  H536  1.092 .      S
C482  H537  1.074 .      S
C483  H538  1.081 .      S
C484  H539  1.081 .      S
C485  H540  1.072 .      S
C487  N163  1.427 .      S
C487  H541  1.101 .      S
C487  H542  1.099 .      S
C487  H543  1.092 .      S
N163  C488  1.423 .      S
N163  H544  1.037 .      S
C488  C489  1.475 .      S
C488  H545  1.105 .      S
C488  H546  1.096 .      S
C491  H547  1.074 .      S
C492  H548  1.081 .      S
C493  H549  1.080 .      S
C494  H550  1.064 .      S
C496  N166  1.447 .      S
C496  H551  1.103 .      S
C496  H552  1.097 .      S
C496  H553  1.087 .      S
N166  C497  1.452 .      S
N166  H554  1.037 .      S
C497  C498  1.456 .      S
C497  H555  1.097 .      S
C497  H556  1.095 .      S
C500  H557  1.070 .      S
C501  H558  1.081 .      S
C502  H559  1.081 .      S
C503  H560  1.056 .      S
C505  N169  1.455 .      S
C505  H561  1.109 1_565  S
C505  H562  1.108 1_565  S
C505  H563  1.107 .      S
N169  C506  1.457 .      S
N169  H564  1.042 .      S
C506  C507  1.494 .      S
C506  H565  1.103 .      S
C506  H566  1.099 .      S
C509  H567  1.069 .      S
C510  H568  1.076 .      S
C511  H569  1.079 .      S
C512  H570  1.070 .      S
H561  C505  1.109 1_545  S
H562  C505  1.108 1_545  S
C514  N172  1.453 .      S
C514  H571  1.109 .      S
C514  H572  1.109 .      S
C514  H573  1.110 1_545  S
N172  C515  1.451 .      S
N172  H574  1.036 .      S
C515  C516  1.497 .      S
C515  H575  1.105 1_545  S
C515  H576  1.107 .      S
C518  H577  1.064 .      S
C519  H578  1.073 1_565  S
C520  H579  1.075 .      S
C521  H580  1.058 .      S
H573  C514  1.110 1_565  S
H575  C515  1.105 1_565  S
H578  C519  1.073 1_545  S
C523  N175  1.439 .      S
C523  H581  1.105 .      S
C523  H582  1.090 .      S
C523  H583  1.093 .      S
N175  C524  1.441 .      S
N175  H584  1.037 .      S
C524  C525  1.490 .      S
C524  H585  1.087 .      S
C524  H586  1.109 .      S
N176  Zn30  2.121 1_455  S
C527  H587  1.059 .      S
C528  H588  1.081 .      S
C529  H589  1.081 .      S
C530  H590  1.065 .      S
C532  N178  1.451 .      S
C532  H591  1.104 .      S
C532  H592  1.080 1_565  S
C532  H593  1.099 .      S
N178  C533  1.444 .      S
N178  H594  1.036 1_565  S
C533  C534  1.498 .      S
C533  H595  1.101 .      S
C533  H596  1.098 .      S
C536  H597  1.079 1_545  S
C537  H598  1.081 .      S
C538  H599  1.081 .      S
C539  H600  1.077 .      S
H592  C532  1.080 1_545  S
H594  N178  1.036 1_545  S
H597  C536  1.079 1_565  S
C541  N181  1.445 .      S
C541  H601  1.103 .      S
C541  H602  1.102 .      S
C541  H603  1.107 .      S
N181  C542  1.427 1_455  S
N181  H604  1.019 .      S
C542  N181  1.427 1_655  S
C542  C543  1.428 .      S
C542  H605  1.106 .      S
C542  H606  1.099 1_655  S
C545  H607  1.077 .      S
C546  H608  1.078 .      S
C547  H609  1.080 .      S
C548  H610  1.079 .      S
H606  C542  1.099 1_455  S
C550  N184  1.452 .      S
C550  H611  1.100 .      S
C550  H612  1.093 .      S
C550  H613  1.107 .      S
N184  C551  1.444 .      S
N184  H614  1.038 .      S
C551  C552  1.459 .      S
C551  H615  1.093 .      S
C551  H616  1.098 1_455  S
C554  H617  1.074 .      S
C555  H618  1.080 .      S
C556  H619  1.081 .      S
C557  H620  1.078 .      S
H616  C551  1.098 1_655  S
C559  N187  1.454 .      S
C559  H621  1.109 .      S
C559  H622  1.109 .      S
C559  H623  1.107 1_455  S
N187  C560  1.466 .      S
N187  H624  1.040 1_565  S
C560  C561  1.499 .      S
C560  H625  1.098 .      S
C560  H626  1.094 .      S
C563  H627  1.064 .      S
C564  H628  1.081 .      S
C565  H629  1.081 .      S
C566  H630  1.070 1_545  S
H623  C559  1.107 1_655  S
H624  N187  1.040 1_545  S
H630  C566  1.070 1_565  S
C568  N190  1.453 1_545  S
C568  H631  1.104 .      S
C568  H632  1.108 .      S
C568  H633  1.102 .      S
N190  C568  1.453 1_565  S
N190  C569  1.456 .      S
N190  H634  1.033 .      S
C569  C570  1.483 .      S
C569  H635  1.106 .      S
C569  H636  1.091 .      S
C572  H637  1.052 .      S
C573  H638  1.070 .      S
C574  H639  1.077 .      S
C575  H640  1.070 .      S
C577  N193  1.453 .      S
C577  H641  1.108 .      S
C577  H642  1.109 .      S
C577  H643  1.109 .      S
N193  C578  1.452 .      S
N193  H644  1.042 .      S
C578  C579  1.481 .      S
C578  H645  1.107 .      S
C578  H646  1.101 .      S
C581  H647  1.076 .      S
C582  H648  1.080 .      S
C583  H649  1.081 .      S
C584  H650  1.069 .      S
C586  N196  1.447 .      S
C586  H651  1.109 .      S
C586  H652  1.106 .      S
C586  H653  1.107 .      S
N196  C587  1.451 .      S
N196  H654  1.042 .      S
C587  C588  1.471 .      S
C587  H655  1.103 .      S
C587  H656  1.100 .      S
C590  H657  1.073 .      S
C591  H658  1.070 .      S
C592  H659  1.071 .      S
C593  H660  1.076 .      S
C595  N199  1.433 .      S
C595  H661  1.104 .      S
C595  H662  1.107 .      S
C595  H663  1.099 .      S
N199  C596  1.433 .      S
N199  H664  1.030 .      S
C596  C597  1.464 1_655  S
C596  H665  1.108 .      S
C596  H666  1.106 1_655  S
C597  C596  1.464 1_455  S
C599  H667  1.067 .      S
C600  H668  1.077 .      S
C601  H669  1.078 .      S
C602  H670  1.076 .      S
N201  Zn33  2.068 1_455  S
H666  C596  1.106 1_455  S
C604  N202  1.448 .      S
C604  H671  1.096 .      S
C604  H672  1.107 .      S
C604  H673  1.095 .      S
N202  C605  1.431 .      S
N202  H674  1.041 .      S
C605  C606  1.467 .      S
C605  H675  1.093 .      S
C605  H676  1.099 .      S
C608  H677  1.077 .      S
C609  H678  1.081 .      S
C610  H679  1.081 .      S
C611  H680  1.060 .      S
C613  N205  1.431 .      S
C613  H681  1.108 .      S
C613  H682  1.100 .      S
C613  H683  1.100 .      S
N205  C614  1.432 .      S
N205  H684  1.030 .      S
C614  C615  1.440 .      S
C614  H685  1.096 .      S
C614  H686  1.104 .      S
C617  H687  1.078 .      S
C618  H688  1.067 .      S
C619  H689  1.075 .      S
C620  H690  1.066 .      S
C622  N208  1.453 .      S
C622  H691  1.109 .      S
C622  H692  1.108 .      S
C622  H693  1.109 .      S
N208  C623  1.451 .      S
N208  H694  1.043 .      S
C623  C624  1.493 .      S
C623  H695  1.104 .      S
C623  H696  1.108 .      S
C626  H697  1.065 .      S
C627  H698  1.068 .      S
C628  H699  1.067 .      S
C629  H700  1.053 .      S
C631  N211  1.447 .      S
C631  H701  1.093 .      S
C631  H702  1.107 .      S
C631  H703  1.105 .      S
N211  C632  1.445 .      S
N211  H704  1.034 .      S
C632  C633  1.418 .      S
C632  H705  1.103 .      S
C632  H706  1.100 .      S
C635  H707  1.073 .      S
C636  H708  1.081 .      S
C637  H709  1.077 .      S
C638  H710  1.080 .      S
C640  N214  1.455 .      S
C640  H711  1.100 .      S
C640  H712  1.071 .      S
C640  H713  1.100 .      S
N214  C641  1.457 .      S
N214  H714  1.030 .      S
C641  C642  1.488 .      S
C641  H715  1.092 .      S
C641  H716  1.094 .      S
C644  H717  1.068 .      S
C645  H718  1.081 .      S
C646  H719  1.081 .      S
C647  H720  1.071 .      S
C649  N217  1.453 .      S
C649  H721  1.109 .      S
C649  H722  1.109 1_455  S
C649  H723  1.109 .      S
N217  C650  1.451 .      S
N217  H724  1.044 1_455  S
C650  C651  1.500 .      S
C650  H725  1.102 .      S
C650  H726  1.102 .      S
C653  H727  1.066 .      S
C654  H728  1.081 .      S
C655  H729  1.081 .      S
C656  H730  1.071 .      S
H722  C649  1.109 1_655  S
H724  N217  1.044 1_655  S
C658  N220  1.441 .      S
C658  H731  1.096 .      S
C658  H732  1.083 .      S
C658  H733  1.091 .      S
N220  C659  1.417 .      S
N220  H734  1.034 .      S
C659  C660  1.441 .      S
C659  H735  1.093 .      S
C659  H736  1.076 .      S
C662  H737  1.062 1_565  S
C663  H738  1.081 .      S
C664  H739  1.081 .      S
C665  H740  1.072 1_556  S
N222  Zn47  2.137 1_556  S
H737  C662  1.062 1_545  S
H740  C665  1.072 1_554  S
C667  N223  1.460 .      S
C667  H741  1.096 .      S
C667  H742  1.100 .      S
C667  H743  1.108 .      S
N223  C668  1.456 .      S
N223  H744  1.033 .      S
C668  C669  1.422 .      S
C668  H745  1.092 .      S
C668  H746  1.079 .      S
C671  H747  1.078 .      S
C672  H748  1.076 .      S
C673  H749  1.074 .      S
C674  H750  1.073 .      S
C676  N226  1.449 .      S
C676  H751  1.102 .      S
C676  H752  1.101 1_455  S
C676  H753  1.105 1_455  S
N226  C677  1.445 .      S
N226  H754  1.036 .      S
C677  C678  1.480 .      S
C677  H755  1.106 1_455  S
C677  H756  1.098 .      S
C680  H757  1.063 .      S
C681  H758  1.060 1_565  S
C682  H759  1.076 1_565  S
C683  H760  1.076 .      S
H752  C676  1.101 1_655  S
H753  C676  1.105 1_655  S
H755  C677  1.106 1_655  S
H758  C681  1.060 1_545  S
H759  C682  1.076 1_545  S
C685  N229  1.447 .      S
C685  H761  1.084 .      S
C685  H762  1.107 .      S
C685  H763  1.103 .      S
N229  C686  1.415 .      S
N229  H764  1.036 .      S
C686  C687  1.449 1_565  S
C686  H765  1.094 .      S
C686  H766  1.092 .      S
C687  C686  1.449 1_545  S
C689  H767  1.073 .      S
C690  H768  1.081 .      S
C691  H769  1.081 .      S
C692  H770  1.081 .      S
C694  N232  1.448 .      S
C694  H771  1.101 .      S
C694  H772  1.104 1_455  S
C694  H773  1.109 .      S
N232  C695  1.455 .      S
N232  H774  1.041 .      S
C695  C696  1.488 .      S
C695  H775  1.098 .      S
C695  H776  1.096 .      S
N233  Zn39  2.153 1_455  S
C698  H777  1.070 .      S
C699  H778  1.081 .      S
C700  H779  1.080 .      S
C701  H780  1.080 .      S
H772  C694  1.104 1_655  S
C703  N235  1.448 .      S
C703  H781  1.106 .      S
C703  H782  1.106 .      S
C703  H783  1.092 .      S
N235  C704  1.436 .      S
N235  H784  1.035 .      S
C704  C705  1.480 .      S
C704  H785  1.091 .      S
C704  H786  1.097 .      S
C707  H787  1.081 .      S
C708  H788  1.081 .      S
C709  H789  1.081 .      S
C710  H790  1.073 .      S
C712  N238  1.451 1_455  S
C712  H791  1.095 .      S
C712  H792  1.100 .      S
C712  H793  1.099 .      S
N238  C712  1.451 1_655  S
N238  C713  1.443 .      S
N238  H794  1.037 .      S
C713  C714  1.482 .      S
C713  H795  1.091 .      S
C713  H796  1.097 .      S
C716  H797  1.064 .      S
C717  H798  1.081 .      S
C718  H799  1.081 .      S
C719  H800  1.061 .      S
C721  N241  1.451 .      S
C721  H801  1.106 .      S
C721  H802  1.108 .      S
C721  H803  1.109 1_554  S
N241  C722  1.452 .      S
N241  H804  1.043 .      S
C722  C723  1.486 .      S
C722  H805  1.109 1_554  S
C722  H806  1.100 .      S
C725  H807  1.070 1_556  S
C726  H808  1.081 .      S
C727  H809  1.081 .      S
C728  H810  1.061 .      S
H803  C721  1.109 1_556  S
H805  C722  1.109 1_556  S
H807  C725  1.070 1_554  S
C730  N244  1.453 .      S
C730  H811  1.108 .      S
C730  H812  1.109 .      S
C730  H813  1.108 .      S
N244  C731  1.455 .      S
N244  H814  1.043 .      S
C731  C732  1.467 .      S
C731  H815  1.098 .      S
C731  H816  1.100 .      S
C734  H817  1.070 .      S
C735  H818  1.081 .      S
C736  H819  1.081 .      S
C737  H820  1.058 .      S
C739  N247  1.448 1_554  S
C739  H821  1.108 1_554  S
C739  H822  1.108 .      S
C739  H823  1.103 .      S
N247  C739  1.448 1_556  S
N247  C740  1.455 1_556  S
N247  H824  1.038 .      S
C740  N247  1.455 1_554  S
C740  C741  1.490 .      S
C740  H825  1.103 .      S
C740  H826  1.104 .      S
C743  H827  1.075 .      S
C744  H828  1.074 .      S
C745  H829  1.074 .      S
C746  H830  1.058 .      S
H821  C739  1.108 1_556  S
C748  N250  1.459 .      S
C748  H831  1.102 .      S
C748  H832  1.094 .      S
C748  H833  1.090 .      S
N250  C749  1.447 .      S
N250  H834  1.039 .      S
C749  C750  1.463 .      S
C749  H835  1.103 .      S
C749  H836  1.101 .      S
C752  H837  1.072 .      S
C753  H838  1.081 .      S
C754  H839  1.081 .      S
C755  H840  1.059 .      S
C757  N253  1.453 .      S
C757  H841  1.109 .      S
C757  H842  1.110 1_556  S
C757  H843  1.108 .      S
N253  C758  1.456 1_556  S
N253  H844  1.042 .      S
C758  N253  1.456 1_554  S
C758  C759  1.488 .      S
C758  H845  1.098 1_545  S
C758  H846  1.099 .      S
C761  H847  1.070 .      S
C762  H848  1.081 .      S
C763  H849  1.081 .      S
C764  H850  1.076 .      S
N255  Zn41  2.085 1_554  S
H842  C757  1.110 1_554  S
H845  C758  1.098 1_565  S
C766  N256  1.446 .      S
C766  H851  1.109 .      S
C766  H852  1.107 .      S
C766  H853  1.102 .      S
N256  C767  1.450 .      S
N256  H854  1.035 .      S
C767  C768  1.492 .      S
C767  H855  1.099 .      S
C767  H856  1.099 .      S
C770  H857  1.067 .      S
C771  H858  1.081 .      S
C772  H859  1.081 .      S
C773  H860  1.079 .      S
C775  N259  1.454 1_655  S
C775  H861  1.100 .      S
C775  H862  1.104 .      S
C775  H863  1.106 .      S
N259  C775  1.454 1_455  S
N259  C776  1.445 .      S
N259  H864  1.036 .      S
C776  C777  1.481 1_556  S
C776  H865  1.070 1_556  S
C776  H866  1.098 .      S
C777  C776  1.481 1_554  S
C779  H867  1.057 .      S
C780  H868  1.081 1_565  S
C781  H869  1.081 1_565  S
C782  H870  1.059 1_455  S
N261  Zn42  2.063 1_455  S
H865  C776  1.070 1_554  S
H868  C780  1.081 1_545  S
H869  C781  1.081 1_545  S
H870  C782  1.059 1_655  S
C784  N262  1.436 .      S
C784  H871  1.103 .      S
C784  H872  1.089 .      S
C784  H873  1.093 .      S
N262  C785  1.448 .      S
N262  H874  1.032 .      S
C785  C786  1.459 1_455  S
C785  H875  1.090 .      S
C785  H876  1.107 .      S
C786  C785  1.459 1_655  S
C788  H877  1.075 .      S
C789  H878  1.072 .      S
C790  H879  1.052 .      S
C791  H880  1.055 .      S
C793  N265  1.433 .      S
C793  H881  1.098 .      S
C793  H882  1.072 .      S
C793  H883  1.095 .      S
N265  C794  1.445 .      S
N265  H884  1.043 .      S
C794  C795  1.487 .      S
C794  H885  1.101 .      S
C794  H886  1.104 .      S
C797  H887  1.046 .      S
C798  H888  1.062 .      S
C799  H889  1.075 .      S
C800  H890  1.057 .      S
C802  N268  1.422 .      S
C802  H891  1.078 .      S
C802  H892  1.096 .      S
C802  H893  1.085 .      S
N268  C803  1.446 .      S
N268  H894  1.032 .      S
C803  C804  1.432 .      S
C803  H895  1.088 .      S
C803  H896  1.065 .      S
C806  H897  1.073 .      S
C807  H898  1.070 .      S
C808  H899  1.066 .      S
C809  H900  1.070 .      S
C811  N271  1.456 .      S
C811  H901  1.105 .      S
C811  H902  1.107 .      S
C811  H903  1.104 .      S
N271  C812  1.445 .      S
N271  H904  1.036 .      S
C812  C813  1.493 .      S
C812  H905  1.089 .      S
C812  H906  1.108 .      S
C815  H907  1.076 .      S
C816  H908  1.081 .      S
C817  H909  1.081 .      S
C818  H910  1.081 .      S
C820  N274  1.442 .      S
C820  H911  1.108 .      S
C820  H912  1.094 .      S
C820  H913  1.094 .      S
N274  C821  1.443 .      S
N274  H914  1.022 .      S
C821  C822  1.428 .      S
C821  H915  1.090 .      S
C821  H916  1.087 .      S
C824  H917  1.080 .      S
C825  H918  1.081 .      S
C826  H919  1.081 .      S
C827  H920  1.081 .      S
C829  N277  1.455 .      S
C829  H921  1.109 .      S
C829  H922  1.109 .      S
C829  H923  1.109 .      S
N277  C830  1.452 .      S
N277  H924  1.042 .      S
C830  C831  1.496 .      S
C830  H925  1.102 .      S
C830  H926  1.105 .      S
N278  Zn54  2.059 1_554  S
C833  H927  1.062 .      S
C834  H928  1.081 .      S
C835  H929  1.080 1_455  S
C836  H930  1.062 1_556  S
N279  Zn45  2.066 1_455  S
H929  C835  1.080 1_655  S
H930  C836  1.062 1_554  S
C838  N280  1.455 .      S
C838  H931  1.108 .      S
C838  H932  1.109 .      S
C838  H933  1.108 .      S
N280  C839  1.444 .      S
N280  H934  1.044 .      S
C839  C840  1.479 .      S
C839  H935  1.099 .      S
C839  H936  1.100 .      S
C842  H937  1.061 .      S
C843  H938  1.074 .      S
C844  H939  1.072 .      S
C845  H940  1.058 .      S
C847  N283  1.442 .      S
C847  H941  1.102 .      S
C847  H942  1.103 .      S
C847  H943  1.097 .      S
N283  C848  1.437 .      S
N283  H944  1.037 .      S
C848  C849  1.437 .      S
C848  H945  1.099 .      S
C848  H946  1.090 .      S
N284  Zn47  2.170 1_556  S
C851  H947  1.071 .      S
C852  H948  1.081 .      S
C853  H949  1.080 .      S
C854  H950  1.075 .      S
C856  N286  1.452 .      S
C856  H951  1.109 .      S
C856  H952  1.108 1_565  S
C856  H953  1.107 .      S
N286  C857  1.453 .      S
N286  H954  1.041 .      S
C857  C858  1.481 .      S
C857  H955  1.106 .      S
C857  H956  1.102 .      S
C860  H957  1.069 1_554  S
C861  H958  1.081 .      S
C862  H959  1.081 .      S
C863  H960  1.077 .      S
H952  C856  1.108 1_545  S
H957  C860  1.069 1_556  S
C865  N289  1.441 .      S
C865  H961  1.088 .      S
C865  H962  1.075 .      S
C865  H963  1.108 .      S
N289  C866  1.447 .      S
N289  H964  1.035 .      S
C866  C867  1.457 .      S
C866  H965  1.103 .      S
C866  H966  1.079 .      S
C869  H967  1.064 .      S
C870  H968  1.079 .      S
C871  H969  1.081 .      S
C872  H970  1.077 .      S
C874  N292  1.439 .      S
C874  H971  1.103 .      S
C874  H972  1.087 .      S
C874  H973  1.096 .      S
N292  C875  1.460 .      S
N292  H974  1.039 .      S
C875  C876  1.458 .      S
C875  H975  1.094 .      S
C875  H976  1.101 .      S
C878  H977  1.073 .      S
C879  H978  1.065 .      S
C880  H979  1.080 .      S
C881  H980  1.059 .      S
C883  N295  1.449 1_565  S
C883  H981  1.108 .      S
C883  H982  1.097 .      S
C883  H983  1.107 .      S
N295  C883  1.449 1_545  S
N295  C884  1.445 .      S
N295  H984  1.035 1_545  S
C884  C885  1.472 .      S
C884  H985  1.092 .      S
C884  H986  1.097 .      S
C887  H987  1.079 .      S
C888  H988  1.080 .      S
C889  H989  1.081 .      S
C890  H990  1.078 .      S
H984  N295  1.035 1_565  S
C892  N298  1.451 .      S
C892  H991  1.109 .      S
C892  H992  1.105 .      S
C892  H993  1.102 .      S
N298  C893  1.458 .      S
N298  H994  1.040 .      S
C893  C894  1.469 .      S
C893  H995  1.090 .      S
C893  H996  1.091 .      S
C896  H997  1.075 .      S
C897  H998  1.081 .      S
C898  H999  1.081 .      S
C899  H1000 1.066 .      S
C901  N301  1.454 .      S
C901  H1001 1.109 .      S
C901  H1002 1.109 .      S
C901  H1003 1.108 .      S
N301  C902  1.451 .      S
N301  H1004 1.043 .      S
C902  C903  1.484 .      S
C902  H1005 1.091 .      S
C902  H1006 1.098 .      S
C905  H1007 1.059 .      S
C906  H1008 1.081 .      S
C907  H1009 1.079 .      S
C908  H1010 1.072 .      S
C910  N304  1.453 .      S
C910  H1011 1.107 .      S
C910  H1012 1.100 .      S
C910  H1013 1.095 .      S
N304  C911  1.448 .      S
N304  H1014 1.040 .      S
C911  C912  1.466 .      S
C911  H1015 1.099 .      S
C911  H1016 1.089 .      S
C914  H1017 1.056 .      S
C915  H1018 1.079 .      S
C916  H1019 1.081 .      S
C917  H1020 1.075 .      S
C919  N307  1.459 .      S
C919  H1021 1.078 .      S
C919  H1022 1.104 .      S
C919  H1023 1.086 .      S
N307  C920  1.460 .      S
N307  H1024 1.033 .      S
C920  C921  1.476 .      S
C920  H1025 1.103 .      S
C920  H1026 1.103 .      S
C923  H1027 1.076 .      S
C924  H1028 1.079 .      S
C925  H1029 1.080 .      S
C926  H1030 1.073 .      S
C928  N310  1.446 .      S
C928  H1031 1.107 .      S
C928  H1032 1.082 .      S
C928  H1033 1.068 .      S
N310  C929  1.442 .      S
N310  H1034 1.039 .      S
C929  C930  1.453 .      S
C929  H1035 1.086 .      S
C929  H1036 1.084 .      S
C932  H1037 1.077 1_556  S
C933  H1038 1.081 .      S
C934  H1039 1.081 .      S
C935  H1040 1.077 .      S
H1037 C932  1.077 1_554  S
C937  N313  1.438 .      S
C937  H1041 1.106 .      S
C937  H1042 1.096 .      S
C937  H1043 1.104 .      S
N313  C938  1.442 1_565  S
N313  H1044 1.043 .      S
C938  N313  1.442 1_545  S
C938  C939  1.463 .      S
C938  H1045 1.089 .      S
C938  H1046 1.088 .      S
C941  H1047 1.077 .      S
C942  H1048 1.077 .      S
C943  H1049 1.080 .      S
C944  H1050 1.059 .      S
C946  N316  1.452 .      S
C946  H1051 1.106 .      S
C946  H1052 1.106 .      S
C946  H1053 1.107 .      S
N316  C947  1.460 .      S
N316  H1054 1.041 .      S
C947  C948  1.483 .      S
C947  H1055 1.082 .      S
C947  H1056 1.086 .      S
C950  H1057 1.082 .      S
C951  H1058 1.081 .      S
C952  H1059 1.081 .      S
C953  H1060 1.072 .      S
C955  N319  1.450 .      S
C955  H1061 1.109 .      S
C955  H1062 1.102 .      S
C955  H1063 1.104 .      S
N319  C956  1.456 .      S
N319  H1064 1.044 .      S
C956  C957  1.472 .      S
C956  H1065 1.096 .      S
C956  H1066 1.096 .      S
C959  H1067 1.072 .      S
C960  H1068 1.073 .      S
C961  H1069 1.075 .      S
C962  H1070 1.074 .      S
C964  N322  1.450 .      S
C964  H1071 1.107 .      S
C964  H1072 1.106 .      S
C964  H1073 1.101 .      S
N322  C965  1.443 .      S
N322  H1074 1.023 .      S
C965  C966  1.489 .      S
C965  H1075 1.090 .      S
C965  H1076 1.109 .      S
C968  H1077 1.078 .      S
C969  H1078 1.081 .      S
C970  H1079 1.081 .      S
C971  H1080 1.066 .      S
C973  N325  1.443 .      S
C973  H1081 1.107 .      S
C973  H1082 1.101 .      S
C973  H1083 1.100 .      S
N325  C974  1.448 .      S
N325  H1084 1.044 .      S
C974  C975  1.468 .      S
C974  H1085 1.097 .      S
C974  H1086 1.104 .      S
N326  Zn54  2.148 1_554  S
C977  H1087 1.063 1_554  S
C978  H1088 1.081 1_554  S
C979  H1089 1.081 .      S
C980  H1090 1.060 .      S
H1087 C977  1.063 1_556  S
H1088 C978  1.081 1_556  S
C982  N328  1.452 .      S
C982  H1091 1.097 .      S
C982  H1092 1.097 .      S
C982  H1093 1.078 .      S
N328  C983  1.458 .      S
N328  H1094 1.036 .      S
C983  C984  1.497 .      S
C983  H1095 1.109 .      S
C983  H1096 1.104 .      S
C986  H1097 1.068 .      S
C987  H1098 1.073 .      S
C988  H1099 1.078 .      S
C989  H1100 1.065 .      S
C991  N331  1.448 .      S
C991  H1101 1.107 .      S
C991  H1102 1.109 .      S
C991  H1103 1.098 .      S
N331  C992  1.458 .      S
N331  H1104 1.033 .      S
C992  C993  1.476 .      S
C992  H1105 1.094 .      S
C992  H1106 1.103 .      S
C995  H1107 1.073 1_565  S
C996  H1108 1.081 .      S
C997  H1109 1.066 .      S
C998  H1110 1.072 .      S
H1107 C995  1.073 1_545  S
C1000 N334  1.444 .      S
C1000 H1111 1.098 .      S
C1000 H1112 1.108 .      S
C1000 H1113 1.099 .      S
N334  C1001 1.455 .      S
N334  H1114 1.043 .      S
C1001 C1002 1.472 .      S
C1001 H1115 1.089 .      S
C1001 H1116 1.104 .      S
C1004 H1117 1.080 .      S
C1005 H1118 1.081 .      S
C1006 H1119 1.081 .      S
C1007 H1120 1.079 .      S
C3    N2    1.390 .      A
C3    N3    1.397 .      A
N2    C4    1.333 .      A
C4    C5    1.353 .      A
C4    C9    1.365 .      A
C5    C6    1.361 .      A
C6    C7    1.383 .      A
C7    C8    1.380 .      A
C8    C9    1.364 .      A
C9    N3    1.346 .      A
C12   N5    1.384 .      A
C12   N6    1.385 .      A
N5    C13   1.358 .      A
C13   C14   1.374 .      A
C13   C18   1.352 .      A
C14   C15   1.383 .      A
C15   C16   1.384 .      A
C16   C17   1.381 .      A
C17   C18   1.366 .      A
C18   N6    1.334 .      A
C21   N8    1.383 .      A
C21   N9    1.392 .      A
N8    C22   1.340 .      A
C22   C23   1.365 .      A
C22   C27   1.337 .      A
C23   C24   1.365 .      A
C24   C25   1.363 .      A
C25   C26   1.384 .      A
C26   C27   1.365 .      A
C27   N9    1.356 .      A
C30   N11   1.392 .      A
C30   N12   1.375 .      A
N11   C31   1.340 .      A
C31   C32   1.344 .      A
C31   C36   1.345 .      A
C32   C33   1.361 .      A
C33   C34   1.359 .      A
C34   C35   1.344 .      A
C35   C36   1.360 .      A
C36   N12   1.315 .      A
C39   N14   1.372 .      A
C39   N15   1.361 .      A
N14   C40   1.353 .      A
C40   C41   1.375 .      A
C40   C45   1.359 .      A
C41   C42   1.385 .      A
C42   C43   1.389 .      A
C43   C44   1.382 .      A
C44   C45   1.374 .      A
C45   N15   1.342 .      A
C48   N17   1.415 .      A
C48   N18   1.373 .      A
N17   C49   1.354 .      A
C49   C50   1.346 .      A
C49   C54   1.362 .      A
C50   C51   1.375 .      A
C51   C52   1.375 .      A
C52   C53   1.356 .      A
C53   C54   1.353 .      A
C54   N18   1.314 .      A
C57   N20   1.390 .      A
C57   N21   1.365 .      A
N20   C58   1.345 .      A
C58   C59   1.366 .      A
C58   C63   1.365 .      A
C59   C60   1.383 .      A
C60   C61   1.389 .      A
C61   C62   1.384 .      A
C62   C63   1.373 .      A
C63   N21   1.348 .      A
C66   N23   1.382 .      A
C66   N24   1.394 .      A
N23   C67   1.344 .      A
C67   C68   1.370 .      A
C67   C72   1.372 .      A
C68   C69   1.379 .      A
C69   C70   1.386 .      A
C70   C71   1.381 .      A
C71   C72   1.371 .      A
C72   N24   1.355 .      A
C75   N26   1.384 .      A
C75   N27   1.400 .      A
N26   C76   1.337 .      A
C76   C77   1.354 .      A
C76   C81   1.355 .      A
C77   C78   1.373 .      A
C78   C79   1.388 .      A
C79   C80   1.367 .      A
C80   C81   1.365 .      A
C81   N27   1.339 .      A
C84   N29   1.413 .      A
C84   N30   1.382 .      A
N29   C85   1.361 .      A
C85   C86   1.376 .      A
C85   C90   1.375 .      A
C86   C87   1.383 .      A
C87   C88   1.385 .      A
C88   C89   1.379 .      A
C89   C90   1.373 .      A
C90   N30   1.343 .      A
C93   N32   1.404 .      A
C93   N33   1.391 .      A
N32   C94   1.353 .      A
C94   C95   1.362 .      A
C94   C99   1.364 .      A
C95   C96   1.381 .      A
C96   C97   1.383 .      A
C97   C98   1.380 .      A
C98   C99   1.370 .      A
C99   N33   1.343 .      A
C102  N35   1.403 .      A
C102  N36   1.388 .      A
N35   C103  1.334 .      A
C103  C104  1.360 .      A
C103  C108  1.355 .      A
C104  C105  1.368 .      A
C105  C106  1.377 .      A
C106  C107  1.358 .      A
C107  C108  1.352 .      A
C108  N36   1.333 .      A
C111  N38   1.388 .      A
C111  N39   1.379 .      A
N38   C112  1.339 .      A
C112  C113  1.369 .      A
C112  C117  1.361 .      A
C113  C114  1.377 .      A
C114  C115  1.382 .      A
C115  C116  1.384 .      A
C116  C117  1.370 .      A
C117  N39   1.352 .      A
C120  N41   1.392 .      A
C120  N42   1.385 1_545  A
N41   C121  1.347 .      A
C121  C122  1.372 .      A
C121  C126  1.367 .      A
C122  C123  1.378 .      A
C123  C124  1.383 .      A
C124  C125  1.382 .      A
C125  C126  1.379 .      A
C126  N42   1.357 1_545  A
N42   C120  1.385 1_565  A
N42   C126  1.357 1_565  A
C129  N44   1.393 .      A
C129  N45   1.355 .      A
N44   C130  1.367 .      A
C130  C131  1.354 .      A
C130  C135  1.356 .      A
C131  C132  1.385 .      A
C132  C133  1.378 .      A
C133  C134  1.373 .      A
C134  C135  1.370 .      A
C135  N45   1.324 .      A
C138  N47   1.404 .      A
C138  N48   1.391 .      A
N47   C139  1.348 .      A
C139  C140  1.371 .      A
C139  C144  1.371 .      A
C140  C141  1.379 1_565  A
C141  C140  1.379 1_545  A
C141  C142  1.385 1_545  A
C142  C141  1.385 1_565  A
C142  C143  1.381 .      A
C143  C144  1.375 .      A
C144  N48   1.350 .      A
C147  N50   1.382 .      A
C147  N51   1.387 .      A
N50   C148  1.358 .      A
C148  C149  1.373 .      A
C148  C153  1.367 .      A
C149  C150  1.383 1_565  A
C150  C149  1.383 1_545  A
C150  C151  1.385 .      A
C151  C152  1.380 1_545  A
C152  C151  1.380 1_565  A
C152  C153  1.374 .      A
C153  N51   1.340 .      A
C156  N53   1.389 1_545  A
C156  N54   1.381 .      A
N53   C156  1.389 1_565  A
N53   C157  1.348 1_565  A
C157  N53   1.348 1_545  A
C157  C158  1.366 .      A
C157  C162  1.371 .      A
C158  C159  1.383 .      A
C159  C160  1.387 .      A
C160  C161  1.383 .      A
C161  C162  1.373 .      A
C162  N54   1.346 .      A
C165  N56   1.395 .      A
C165  N57   1.405 .      A
N56   C166  1.335 .      A
C166  C167  1.368 .      A
C166  C171  1.362 .      A
C167  C168  1.373 .      A
C168  C169  1.378 .      A
C169  C170  1.379 .      A
C170  C171  1.366 .      A
C171  N57   1.357 .      A
C174  N59   1.390 .      A
C174  N60   1.399 .      A
N59   C175  1.347 .      A
C175  C176  1.371 .      A
C175  C180  1.368 .      A
C176  C177  1.382 .      A
C177  C178  1.386 .      A
C178  C179  1.382 .      A
C179  C180  1.374 .      A
C180  N60   1.353 .      A
C183  N62   1.397 .      A
C183  N63   1.396 .      A
N62   C184  1.328 .      A
C184  C185  1.357 .      A
C184  C189  1.359 .      A
C185  C186  1.367 .      A
C186  C187  1.385 .      A
C187  C188  1.356 .      A
C188  C189  1.340 .      A
C189  N63   1.326 .      A
C192  N65   1.392 .      A
C192  N66   1.390 .      A
N65   C193  1.351 .      A
C193  C194  1.372 .      A
C193  C198  1.369 .      A
C194  C195  1.381 .      A
C195  C196  1.385 .      A
C196  C197  1.381 .      A
C197  C198  1.373 .      A
C198  N66   1.346 .      A
C201  N68   1.389 .      A
C201  N69   1.404 .      A
N68   C202  1.341 .      A
C202  C203  1.364 .      A
C202  C207  1.376 .      A
C203  C204  1.384 .      A
C204  C205  1.386 .      A
C205  C206  1.382 .      A
C206  C207  1.372 .      A
C207  N69   1.354 .      A
C210  N71   1.394 .      A
C210  N72   1.396 .      A
N71   C211  1.350 .      A
C211  C212  1.373 .      A
C211  C216  1.379 .      A
C212  C213  1.384 .      A
C213  C214  1.391 .      A
C214  C215  1.384 .      A
C215  C216  1.373 .      A
C216  N72   1.352 .      A
C219  N74   1.394 .      A
C219  N75   1.398 .      A
N74   C220  1.319 .      A
C220  C221  1.327 .      A
C220  C225  1.327 .      A
C221  C222  1.361 .      A
C222  C223  1.371 .      A
C223  C224  1.371 .      A
C224  C225  1.322 .      A
C225  N75   1.316 .      A
C228  N77   1.384 .      A
C228  N78   1.385 .      A
N77   C229  1.352 .      A
C229  C230  1.371 .      A
C229  C234  1.372 .      A
C230  C231  1.385 .      A
C231  C232  1.390 .      A
C232  C233  1.383 .      A
C233  C234  1.370 .      A
C234  N78   1.345 .      A
C237  N80   1.387 .      A
C237  N81   1.379 .      A
N80   C238  1.355 .      A
C238  C239  1.364 .      A
C238  C243  1.368 .      A
C239  C240  1.384 .      A
C240  C241  1.385 .      A
C241  C242  1.380 .      A
C242  C243  1.367 .      A
C243  N81   1.342 .      A
C246  N83   1.403 .      A
C246  N84   1.392 .      A
N83   C247  1.351 .      A
C247  C248  1.368 .      A
C247  C252  1.369 .      A
C248  C249  1.384 .      A
C249  C250  1.386 .      A
C250  C251  1.380 .      A
C251  C252  1.368 .      A
C252  N84   1.344 .      A
C255  N86   1.379 .      A
C255  N87   1.384 .      A
N86   C256  1.353 .      A
C256  C257  1.373 .      A
C256  C261  1.366 .      A
C257  C258  1.380 .      A
C258  C259  1.385 .      A
C259  C260  1.380 .      A
C260  C261  1.375 .      A
C261  N87   1.344 .      A
C264  N89   1.394 .      A
C264  N90   1.382 .      A
N89   C265  1.356 .      A
C265  C266  1.374 .      A
C265  C270  1.367 .      A
C266  C267  1.384 .      A
C267  C268  1.387 .      A
C268  C269  1.380 .      A
C269  C270  1.373 .      A
C270  N90   1.340 .      A
C273  N92   1.368 .      A
C273  N93   1.387 .      A
N92   C274  1.343 .      A
C274  C275  1.368 .      A
C274  C279  1.362 .      A
C275  C276  1.383 .      A
C276  C277  1.383 .      A
C277  C278  1.381 .      A
C278  C279  1.372 .      A
C279  N93   1.350 .      A
C282  N95   1.375 .      A
C282  N96   1.385 .      A
N95   C283  1.355 .      A
C283  C284  1.374 .      A
C283  C288  1.369 .      A
C284  C285  1.384 .      A
C285  C286  1.388 .      A
C286  C287  1.382 .      A
C287  C288  1.366 .      A
C288  N96   1.346 .      A
C291  N98   1.373 .      A
C291  N99   1.382 .      A
N98   C292  1.334 .      A
C292  C293  1.342 1_545  A
C292  C297  1.356 .      A
C293  C292  1.342 1_565  A
C293  C294  1.368 .      A
C294  C295  1.380 .      A
C295  C296  1.368 .      A
C296  C297  1.365 1_565  A
C297  C296  1.365 1_545  A
C297  N99   1.338 .      A
C300  N101  1.388 1_455  A
C300  N102  1.394 .      A
N101  C300  1.388 1_655  A
N101  C301  1.343 .      A
C301  C302  1.374 .      A
C301  C306  1.367 .      A
C302  C303  1.380 .      A
C303  C304  1.385 .      A
C304  C305  1.382 .      A
C305  C306  1.372 .      A
C306  N102  1.355 1_655  A
N102  C306  1.355 1_455  A
C309  N104  1.402 .      A
C309  N105  1.384 .      A
N104  C310  1.349 .      A
C310  C311  1.353 .      A
C310  C315  1.347 .      A
C311  C312  1.364 .      A
C312  C313  1.364 .      A
C313  C314  1.364 .      A
C314  C315  1.356 .      A
C315  N105  1.322 .      A
C318  N107  1.386 .      A
C318  N108  1.391 .      A
N107  C319  1.331 .      A
C319  C320  1.351 .      A
C319  C324  1.347 .      A
C320  C321  1.354 .      A
C321  C322  1.346 .      A
C322  C323  1.336 .      A
C323  C324  1.350 .      A
C324  N108  1.325 .      A
C327  N110  1.378 .      A
C327  N111  1.384 .      A
N110  C328  1.353 .      A
C328  C329  1.365 .      A
C328  C333  1.342 .      A
C329  C330  1.386 .      A
C330  C331  1.364 .      A
C331  C332  1.352 .      A
C332  C333  1.364 .      A
C333  N111  1.327 .      A
C336  N113  1.376 .      A
C336  N114  1.375 .      A
N113  C337  1.341 .      A
C337  C338  1.370 .      A
C337  C342  1.359 .      A
C338  C339  1.382 .      A
C339  C340  1.386 .      A
C340  C341  1.383 .      A
C341  C342  1.366 .      A
C342  N114  1.350 .      A
C345  N116  1.368 .      A
C345  N117  1.363 .      A
N116  C346  1.361 .      A
C346  C347  1.384 .      A
C346  C351  1.352 .      A
C347  C348  1.379 .      A
C348  C349  1.380 .      A
C349  C350  1.378 .      A
C350  C351  1.384 .      A
C351  N117  1.350 .      A
C354  N119  1.388 .      A
C354  N120  1.409 .      A
N119  C355  1.317 .      A
C355  C356  1.340 .      A
C355  C360  1.340 .      A
C356  C357  1.353 .      A
C357  C358  1.365 .      A
C358  C359  1.384 .      A
C359  C360  1.370 .      A
C360  N120  1.356 .      A
C363  N122  1.368 .      A
C363  N123  1.369 .      A
N122  C364  1.334 .      A
C364  C365  1.368 .      A
C364  C369  1.344 .      A
C365  C366  1.364 .      A
C366  C367  1.377 .      A
C367  C368  1.375 .      A
C368  C369  1.357 .      A
C369  N123  1.346 .      A
C372  N125  1.400 .      A
C372  N126  1.362 .      A
N125  C373  1.364 .      A
C373  C374  1.379 .      A
C373  C378  1.363 .      A
C374  C375  1.384 .      A
C375  C376  1.384 .      A
C376  C377  1.378 .      A
C377  C378  1.373 .      A
C378  N126  1.336 .      A
C381  N128  1.406 .      A
C381  N129  1.381 .      A
N128  C382  1.366 .      A
C382  C383  1.383 .      A
C382  C387  1.353 .      A
C383  C384  1.375 .      A
C384  C385  1.373 .      A
C385  C386  1.371 .      A
C386  C387  1.361 .      A
C387  N129  1.333 .      A
C390  N131  1.389 .      A
C390  N132  1.397 .      A
N131  C391  1.317 .      A
C391  C392  1.343 .      A
C391  C396  1.345 .      A
C392  C393  1.372 .      A
C393  C394  1.373 .      A
C394  C395  1.374 .      A
C395  C396  1.347 .      A
C396  N132  1.349 .      A
C399  N134  1.387 .      A
C399  N135  1.388 .      A
N134  C400  1.343 .      A
C400  C401  1.371 .      A
C400  C405  1.347 .      A
C401  C402  1.375 .      A
C402  C403  1.374 .      A
C403  C404  1.375 .      A
C404  C405  1.366 .      A
C405  N135  1.349 .      A
C408  N137  1.364 .      A
C408  N138  1.383 .      A
N137  C409  1.327 .      A
C409  C410  1.333 .      A
C409  C414  1.344 .      A
C410  C411  1.351 .      A
C411  C412  1.391 .      A
C412  C413  1.364 .      A
C413  C414  1.345 .      A
C414  N138  1.326 .      A
C417  N140  1.392 .      A
C417  N141  1.396 .      A
N140  C418  1.352 .      A
C418  C419  1.357 .      A
C418  C423  1.334 .      A
C419  C420  1.380 .      A
C420  C421  1.377 .      A
C421  C422  1.374 .      A
C422  C423  1.355 .      A
C423  N141  1.329 .      A
C426  N143  1.378 .      A
C426  N144  1.365 .      A
N143  C427  1.347 .      A
C427  C428  1.367 .      A
C427  C432  1.364 .      A
C428  C429  1.385 1_565  A
C429  C428  1.385 1_545  A
C429  C430  1.388 .      A
C430  C431  1.383 1_545  A
C431  C430  1.383 1_565  A
C431  C432  1.374 .      A
C432  N144  1.342 .      A
C435  N146  1.382 .      A
C435  N147  1.389 .      A
N146  C436  1.346 .      A
C436  C437  1.376 .      A
C436  C441  1.374 .      A
C437  C438  1.382 1_565  A
C438  C437  1.382 1_545  A
C438  C439  1.388 .      A
C439  C440  1.384 1_545  A
C440  C439  1.384 1_565  A
C440  C441  1.371 .      A
C441  N147  1.354 .      A
C444  N149  1.387 1_565  A
C444  N150  1.390 .      A
N149  C444  1.387 1_545  A
N149  C445  1.332 .      A
C445  C446  1.358 1_545  A
C445  C450  1.330 1_545  A
C446  C445  1.358 1_565  A
C446  C447  1.365 .      A
C447  C448  1.368 .      A
C448  C449  1.376 .      A
C449  C450  1.386 .      A
C450  C445  1.330 1_565  A
C450  N150  1.363 .      A
C453  N152  1.395 .      A
C453  N153  1.383 .      A
N152  C454  1.334 .      A
C454  C455  1.359 .      A
C454  C459  1.348 .      A
C455  C456  1.357 .      A
C456  C457  1.369 .      A
C457  C458  1.373 .      A
C458  C459  1.346 .      A
C459  N153  1.334 .      A
C462  N155  1.398 .      A
C462  N156  1.376 .      A
N155  C463  1.356 .      A
C463  C464  1.368 .      A
C463  C468  1.354 .      A
C464  C465  1.374 .      A
C465  C466  1.374 1_554  A
C466  C465  1.374 1_556  A
C466  C467  1.375 .      A
C467  C468  1.368 1_556  A
C468  C467  1.368 1_554  A
C468  N156  1.334 .      A
C471  N158  1.382 .      A
C471  N159  1.382 .      A
N158  C472  1.344 .      A
C472  C473  1.366 .      A
C472  C477  1.336 .      A
C473  C474  1.383 .      A
C474  C475  1.379 .      A
C475  C476  1.364 .      A
C476  C477  1.364 .      A
C477  N159  1.328 .      A
C480  N161  1.387 .      A
C480  N162  1.365 .      A
N161  C481  1.347 .      A
C481  C482  1.372 .      A
C481  C486  1.364 .      A
C482  C483  1.382 .      A
C483  C484  1.388 .      A
C484  C485  1.383 .      A
C485  C486  1.373 .      A
C486  N162  1.351 .      A
C489  N164  1.397 .      A
C489  N165  1.371 .      A
N164  C490  1.347 .      A
C490  C491  1.373 .      A
C490  C495  1.363 .      A
C491  C492  1.379 .      A
C492  C493  1.383 .      A
C493  C494  1.380 .      A
C494  C495  1.365 .      A
C495  N165  1.343 .      A
C498  N167  1.381 .      A
C498  N168  1.381 .      A
N167  C499  1.333 .      A
C499  C500  1.370 .      A
C499  C504  1.368 .      A
C500  C501  1.375 1_565  A
C501  C500  1.375 1_545  A
C501  C502  1.379 .      A
C502  C503  1.382 1_545  A
C503  C502  1.382 1_565  A
C503  C504  1.377 .      A
C504  N168  1.370 .      A
C507  N170  1.378 .      A
C507  N171  1.390 .      A
N170  C508  1.338 .      A
C508  C509  1.363 .      A
C508  C513  1.343 .      A
C509  C510  1.367 .      A
C510  C511  1.375 .      A
C511  C512  1.385 .      A
C512  C513  1.345 .      A
C513  N171  1.335 .      A
C516  N173  1.407 .      A
C516  N174  1.406 1_545  A
N173  C517  1.350 .      A
C517  C518  1.362 .      A
C517  C522  1.343 1_545  A
C518  C519  1.382 1_545  A
C519  C518  1.382 1_565  A
C519  C520  1.379 .      A
C520  C521  1.363 .      A
C521  C522  1.357 .      A
C522  C517  1.343 1_565  A
C522  N174  1.333 .      A
N174  C516  1.406 1_565  A
C525  N176  1.380 .      A
C525  N177  1.403 .      A
N176  C526  1.354 .      A
C526  C527  1.376 1_455  A
C526  C531  1.361 .      A
C527  C526  1.376 1_655  A
C527  C528  1.382 .      A
C528  C529  1.383 1_655  A
C529  C528  1.383 1_455  A
C529  C530  1.379 .      A
C530  C531  1.368 .      A
C531  N177  1.343 .      A
C534  N179  1.390 .      A
C534  N180  1.408 1_565  A
N179  C535  1.345 1_565  A
C535  N179  1.345 1_545  A
C535  C536  1.373 .      A
C535  C540  1.371 .      A
C536  C537  1.385 .      A
C537  C538  1.391 .      A
C538  C539  1.384 .      A
C539  C540  1.371 .      A
C540  N180  1.352 .      A
N180  C534  1.408 1_545  A
C543  N182  1.371 .      A
C543  N183  1.377 .      A
N182  C544  1.345 .      A
C544  C545  1.362 .      A
C544  C549  1.361 .      A
C545  C546  1.377 1_565  A
C546  C545  1.377 1_545  A
C546  C547  1.391 .      A
C547  C548  1.379 1_545  A
C548  C547  1.379 1_565  A
C548  C549  1.370 .      A
C549  N183  1.342 .      A
C552  N185  1.381 1_455  A
C552  N186  1.373 .      A
N185  C552  1.381 1_655  A
N185  C553  1.344 .      A
C553  C554  1.367 .      A
C553  C558  1.365 1_655  A
C554  C555  1.383 .      A
C555  C556  1.388 1_655  A
C556  C555  1.388 1_455  A
C556  C557  1.383 .      A
C557  C558  1.377 .      A
C558  C553  1.365 1_455  A
C558  N186  1.354 .      A
C561  N188  1.393 1_565  A
C561  N189  1.369 1_455  A
N188  C561  1.393 1_545  A
N188  C562  1.347 1_455  A
C562  N188  1.347 1_655  A
C562  C563  1.375 .      A
C562  C567  1.362 .      A
C563  C564  1.379 .      A
C564  C565  1.381 .      A
C565  C566  1.380 .      A
C566  C567  1.377 .      A
C567  N189  1.351 1_545  A
N189  C561  1.369 1_655  A
N189  C567  1.351 1_565  A
C570  N191  1.410 .      A
C570  N192  1.374 .      A
N191  C571  1.364 .      A
C571  C572  1.362 .      A
C571  C576  1.352 .      A
C572  C573  1.391 .      A
C573  C574  1.371 .      A
C574  C575  1.366 .      A
C575  C576  1.370 .      A
C576  N192  1.324 .      A
C579  N194  1.388 .      A
C579  N195  1.376 .      A
N194  C580  1.344 .      A
C580  C581  1.372 .      A
C580  C585  1.354 .      A
C581  C582  1.385 1_565  A
C582  C581  1.385 1_545  A
C582  C583  1.388 .      A
C583  C584  1.383 1_545  A
C584  C583  1.383 1_565  A
C584  C585  1.372 .      A
C585  N195  1.344 .      A
C588  N197  1.379 .      A
C588  N198  1.387 .      A
N197  C589  1.318 .      A
C589  C590  1.354 .      A
C589  C594  1.344 .      A
C590  C591  1.361 .      A
C591  C592  1.387 .      A
C592  C593  1.375 .      A
C593  C594  1.351 .      A
C594  N198  1.338 .      A
C597  N200  1.391 .      A
C597  N201  1.378 .      A
N200  C598  1.329 .      A
C598  C599  1.335 .      A
C598  C603  1.351 .      A
C599  C600  1.366 .      A
C600  C601  1.388 .      A
C601  C602  1.376 .      A
C602  C603  1.363 .      A
C603  N201  1.337 .      A
C606  N203  1.392 .      A
C606  N204  1.369 .      A
N203  C607  1.347 .      A
C607  C608  1.377 .      A
C607  C612  1.366 .      A
C608  C609  1.381 .      A
C609  C610  1.387 .      A
C610  C611  1.385 .      A
C611  C612  1.371 .      A
C612  N204  1.349 .      A
C615  N206  1.391 .      A
C615  N207  1.376 1_455  A
N206  C616  1.348 .      A
C616  C617  1.365 .      A
C616  C621  1.374 1_455  A
C617  C618  1.384 1_455  A
C618  C617  1.384 1_655  A
C618  C619  1.380 .      A
C619  C620  1.374 .      A
C620  C621  1.356 .      A
C621  C616  1.374 1_655  A
C621  N207  1.341 .      A
N207  C615  1.376 1_655  A
C624  N209  1.399 .      A
C624  N210  1.393 .      A
N209  C625  1.337 .      A
C625  C626  1.361 .      A
C625  C630  1.347 .      A
C626  C627  1.374 .      A
C627  C628  1.371 .      A
C628  C629  1.361 .      A
C629  C630  1.357 .      A
C630  N210  1.337 .      A
C633  N212  1.373 .      A
C633  N213  1.381 .      A
N212  C634  1.345 .      A
C634  C635  1.369 .      A
C634  C639  1.375 .      A
C635  C636  1.380 .      A
C636  C637  1.387 .      A
C637  C638  1.387 .      A
C638  C639  1.376 .      A
C639  N213  1.362 .      A
C642  N215  1.390 .      A
C642  N216  1.379 .      A
N215  C643  1.351 .      A
C643  C644  1.375 .      A
C643  C648  1.371 .      A
C644  C645  1.381 .      A
C645  C646  1.384 .      A
C646  C647  1.381 .      A
C647  C648  1.376 .      A
C648  N216  1.351 .      A
C651  N218  1.378 .      A
C651  N219  1.391 .      A
N218  C652  1.338 .      A
C652  C653  1.364 .      A
C652  C657  1.354 .      A
C653  C654  1.377 1_455  A
C654  C653  1.377 1_655  A
C654  C655  1.381 .      A
C655  C656  1.383 .      A
C656  C657  1.370 1_655  A
C657  C656  1.370 1_455  A
C657  N219  1.348 .      A
C660  N221  1.386 .      A
C660  N222  1.377 .      A
N221  C661  1.356 .      A
C661  C662  1.377 .      A
C661  C666  1.374 .      A
C662  C663  1.379 1_565  A
C663  C662  1.379 1_545  A
C663  C664  1.380 .      A
C664  C665  1.378 1_545  A
C665  C664  1.378 1_565  A
C665  C666  1.384 .      A
C666  N222  1.357 .      A
C669  N224  1.349 .      A
C669  N225  1.374 .      A
N224  C670  1.331 .      A
C670  C671  1.365 .      A
C670  C675  1.361 .      A
C671  C672  1.372 .      A
C672  C673  1.383 .      A
C673  C674  1.386 .      A
C674  C675  1.365 .      A
C675  N225  1.356 .      A
C678  N227  1.397 .      A
C678  N228  1.404 1_455  A
N227  C679  1.344 .      A
C679  C680  1.349 .      A
C679  C684  1.350 .      A
C680  C681  1.367 .      A
C681  C682  1.384 1_455  A
C682  C681  1.384 1_655  A
C682  C683  1.376 .      A
C683  C684  1.356 1_655  A
C684  C683  1.356 1_455  A
C684  N228  1.324 1_455  A
N228  C678  1.404 1_655  A
N228  C684  1.324 1_655  A
C687  N230  1.384 .      A
C687  N231  1.374 1_545  A
N230  C688  1.361 .      A
C688  C689  1.376 .      A
C688  C693  1.371 .      A
C689  C690  1.385 .      A
C690  C691  1.389 .      A
C691  C692  1.382 .      A
C692  C693  1.371 .      A
C693  N231  1.340 1_545  A
N231  C687  1.374 1_565  A
N231  C693  1.340 1_565  A
C696  N233  1.395 .      A
C696  N234  1.387 .      A
N233  C697  1.358 .      A
C697  C698  1.376 .      A
C697  C702  1.369 .      A
C698  C699  1.382 .      A
C699  C700  1.386 .      A
C700  C701  1.382 .      A
C701  C702  1.373 .      A
C702  N234  1.341 .      A
C705  N236  1.395 .      A
C705  N237  1.384 .      A
N236  C706  1.348 .      A
C706  C707  1.374 .      A
C706  C711  1.370 .      A
C707  C708  1.383 .      A
C708  C709  1.389 .      A
C709  C710  1.385 .      A
C710  C711  1.374 .      A
C711  N237  1.354 .      A
C714  N239  1.383 .      A
C714  N240  1.382 .      A
N239  C715  1.341 .      A
C715  C716  1.368 1_655  A
C715  C720  1.356 .      A
C716  C715  1.368 1_455  A
C716  C717  1.381 .      A
C717  C718  1.386 .      A
C718  C719  1.383 .      A
C719  C720  1.369 1_455  A
C720  C719  1.369 1_655  A
C720  N240  1.349 .      A
C723  N242  1.394 .      A
C723  N243  1.371 1_554  A
N242  C724  1.354 .      A
C724  C725  1.379 1_554  A
C724  C729  1.360 1_554  A
C725  C724  1.379 1_556  A
C725  C726  1.379 .      A
C726  C727  1.381 .      A
C727  C728  1.379 .      A
C728  C729  1.371 .      A
C729  C724  1.360 1_556  A
C729  N243  1.347 .      A
N243  C723  1.371 1_556  A
C732  N245  1.391 .      A
C732  N246  1.386 .      A
N245  C733  1.345 .      A
C733  C734  1.373 .      A
C733  C738  1.355 .      A
C734  C735  1.381 .      A
C735  C736  1.382 .      A
C736  C737  1.380 .      A
C737  C738  1.369 .      A
C738  N246  1.353 .      A
C741  N248  1.386 .      A
C741  N249  1.398 1_554  A
N248  C742  1.336 1_554  A
C742  N248  1.336 1_556  A
C742  C743  1.369 .      A
C742  C747  1.357 .      A
C743  C744  1.376 .      A
C744  C745  1.376 .      A
C745  C746  1.384 .      A
C746  C747  1.361 .      A
C747  N249  1.347 .      A
N249  C741  1.398 1_556  A
C750  N251  1.374 1_554  A
C750  N252  1.388 .      A
N251  C750  1.374 1_556  A
N251  C751  1.337 .      A
C751  C752  1.372 .      A
C751  C756  1.366 .      A
C752  C753  1.379 .      A
C753  C754  1.385 .      A
C754  C755  1.384 .      A
C755  C756  1.370 .      A
C756  N252  1.364 1_556  A
N252  C756  1.364 1_554  A
C759  N254  1.395 .      A
C759  N255  1.380 1_545  A
N254  C760  1.350 .      A
C760  C761  1.367 .      A
C760  C765  1.363 1_544  A
C761  C762  1.384 1_554  A
C762  C761  1.384 1_556  A
C762  C763  1.389 1_545  A
C763  C762  1.389 1_565  A
C763  C764  1.383 .      A
C764  C765  1.372 .      A
C765  C760  1.363 1_566  A
C765  N255  1.343 1_556  A
N255  C759  1.380 1_565  A
N255  C765  1.343 1_554  A
C768  N257  1.372 .      A
C768  N258  1.384 .      A
N257  C769  1.347 .      A
C769  C770  1.366 .      A
C769  C774  1.352 .      A
C770  C771  1.382 1_565  A
C771  C770  1.382 1_545  A
C771  C772  1.387 .      A
C772  C773  1.383 1_545  A
C773  C772  1.383 1_565  A
C773  C774  1.372 .      A
C774  N258  1.340 .      A
C777  N260  1.390 .      A
C777  N261  1.369 .      A
N260  C778  1.341 .      A
C778  C779  1.358 .      A
C778  C783  1.353 .      A
C779  C780  1.378 .      A
C780  C781  1.380 .      A
C781  C782  1.380 .      A
C782  C783  1.370 .      A
C783  N261  1.346 .      A
C786  N263  1.366 .      A
C786  N264  1.408 .      A
N263  C787  1.315 .      A
C787  C788  1.353 .      A
C787  C792  1.360 .      A
C788  C789  1.362 .      A
C789  C790  1.376 .      A
C790  C791  1.362 .      A
C791  C792  1.327 .      A
C792  N264  1.336 .      A
C795  N266  1.394 .      A
C795  N267  1.370 .      A
N266  C796  1.338 .      A
C796  C797  1.343 .      A
C796  C801  1.342 .      A
C797  C798  1.369 .      A
C798  C799  1.376 .      A
C799  C800  1.379 .      A
C800  C801  1.355 .      A
C801  N267  1.330 .      A
C804  N269  1.376 .      A
C804  N270  1.381 .      A
N269  C805  1.329 .      A
C805  C806  1.353 1_655  A
C805  C810  1.356 .      A
C806  C805  1.353 1_455  A
C806  C807  1.371 .      A
C807  C808  1.388 .      A
C808  C809  1.372 .      A
C809  C810  1.350 1_455  A
C810  C809  1.350 1_655  A
C810  N270  1.327 .      A
C813  N272  1.388 .      A
C813  N273  1.399 .      A
N272  C814  1.352 .      A
C814  C815  1.371 .      A
C814  C819  1.363 .      A
C815  C816  1.386 1_565  A
C816  C815  1.386 1_545  A
C816  C817  1.388 .      A
C817  C818  1.382 1_545  A
C818  C817  1.382 1_565  A
C818  C819  1.377 .      A
C819  N273  1.342 .      A
C822  N275  1.387 .      A
C822  N276  1.375 .      A
N275  C823  1.349 .      A
C823  C824  1.371 .      A
C823  C828  1.375 .      A
C824  C825  1.385 .      A
C825  C826  1.392 .      A
C826  C827  1.385 .      A
C827  C828  1.371 .      A
C828  N276  1.347 .      A
C831  N278  1.366 .      A
C831  N279  1.381 .      A
N278  C832  1.355 1_554  A
C832  N278  1.355 1_556  A
C832  C833  1.381 .      A
C832  C837  1.357 1_556  A
C833  C834  1.380 .      A
C834  C835  1.379 .      A
C835  C836  1.379 1_455  A
C836  C835  1.379 1_655  A
C836  C837  1.373 1_656  A
C837  C832  1.357 1_554  A
C837  C836  1.373 1_454  A
C837  N279  1.346 .      A
C840  N281  1.362 .      A
C840  N282  1.371 .      A
N281  C841  1.358 .      A
C841  C842  1.384 .      A
C841  C846  1.346 .      A
C842  C843  1.369 .      A
C843  C844  1.365 .      A
C844  C845  1.371 .      A
C845  C846  1.369 .      A
C846  N282  1.347 .      A
C849  N284  1.393 1_554  A
C849  N285  1.378 1_554  A
N284  C849  1.393 1_556  A
N284  C850  1.354 .      A
C850  C851  1.373 .      A
C850  C855  1.374 .      A
C851  C852  1.384 .      A
C852  C853  1.388 .      A
C853  C854  1.383 .      A
C854  C855  1.372 .      A
C855  N285  1.347 .      A
N285  C849  1.378 1_556  A
C858  N287  1.401 .      A
C858  N288  1.388 .      A
N287  C859  1.352 .      A
C859  C860  1.373 .      A
C859  C864  1.369 .      A
C860  C861  1.384 1_554  A
C861  C860  1.384 1_556  A
C861  C862  1.388 1_556  A
C862  C861  1.388 1_554  A
C862  C863  1.383 .      A
C863  C864  1.377 .      A
C864  N288  1.346 .      A
C867  N290  1.397 .      A
C867  N291  1.360 .      A
N290  C868  1.359 .      A
C868  C869  1.372 .      A
C868  C873  1.359 .      A
C869  C870  1.381 .      A
C870  C871  1.383 .      A
C871  C872  1.379 .      A
C872  C873  1.378 .      A
C873  N291  1.344 .      A
C876  N293  1.385 .      A
C876  N294  1.386 .      A
N293  C877  1.348 .      A
C877  C878  1.368 .      A
C877  C882  1.361 .      A
C878  C879  1.382 .      A
C879  C880  1.379 .      A
C880  C881  1.373 .      A
C881  C882  1.367 .      A
C882  N294  1.341 .      A
C885  N296  1.381 .      A
C885  N297  1.391 .      A
N296  C886  1.345 .      A
C886  C887  1.375 .      A
C886  C891  1.366 .      A
C887  C888  1.383 .      A
C888  C889  1.387 .      A
C889  C890  1.383 .      A
C890  C891  1.374 .      A
C891  N297  1.353 .      A
C894  N299  1.376 .      A
C894  N300  1.397 .      A
N299  C895  1.342 .      A
C895  C896  1.370 .      A
C895  C900  1.367 .      A
C896  C897  1.384 .      A
C897  C898  1.391 .      A
C898  C899  1.384 .      A
C899  C900  1.365 .      A
C900  N300  1.349 .      A
C903  N302  1.376 .      A
C903  N303  1.400 .      A
N302  C904  1.331 .      A
C904  C905  1.346 1_545  A
C904  C909  1.350 .      A
C905  C904  1.346 1_565  A
C905  C906  1.372 .      A
C906  C907  1.383 .      A
C907  C908  1.380 1_565  A
C908  C907  1.380 1_545  A
C908  C909  1.363 .      A
C909  N303  1.341 .      A
C912  N305  1.386 .      A
C912  N306  1.367 .      A
N305  C913  1.359 .      A
C913  C914  1.367 .      A
C913  C918  1.361 .      A
C914  C915  1.389 .      A
C915  C916  1.389 .      A
C916  C917  1.382 .      A
C917  C918  1.375 .      A
C918  N306  1.331 .      A
C921  N308  1.384 .      A
C921  N309  1.372 .      A
N308  C922  1.341 .      A
C922  C923  1.373 .      A
C922  C927  1.360 .      A
C923  C924  1.385 .      A
C924  C925  1.390 .      A
C925  C926  1.384 .      A
C926  C927  1.358 .      A
C927  N309  1.341 .      A
C930  N311  1.377 .      A
C930  N312  1.384 .      A
N311  C931  1.351 .      A
C931  C932  1.372 1_554  A
C931  C936  1.372 .      A
C932  C931  1.372 1_556  A
C932  C933  1.385 .      A
C933  C934  1.391 .      A
C934  C935  1.385 .      A
C935  C936  1.371 1_556  A
C936  C935  1.371 1_554  A
C936  N312  1.348 .      A
C939  N314  1.376 .      A
C939  N315  1.383 .      A
N314  C940  1.343 .      A
C940  C941  1.364 .      A
C940  C945  1.357 .      A
C941  C942  1.384 1_455  A
C942  C941  1.384 1_655  A
C942  C943  1.383 1_655  A
C943  C942  1.383 1_455  A
C943  C944  1.379 .      A
C944  C945  1.365 .      A
C945  N315  1.344 .      A
C948  N317  1.371 .      A
C948  N318  1.385 .      A
N317  C949  1.343 .      A
C949  C950  1.373 .      A
C949  C954  1.361 .      A
C950  C951  1.384 .      A
C951  C952  1.390 .      A
C952  C953  1.384 .      A
C953  C954  1.371 .      A
C954  N318  1.349 .      A
C957  N320  1.380 .      A
C957  N321  1.382 .      A
N320  C958  1.342 .      A
C958  C959  1.354 .      A
C958  C963  1.352 .      A
C959  C960  1.385 .      A
C960  C961  1.379 .      A
C961  C962  1.372 .      A
C962  C963  1.358 .      A
C963  N321  1.333 .      A
C966  N323  1.393 .      A
C966  N324  1.379 .      A
N323  C967  1.345 .      A
C967  C968  1.373 .      A
C967  C972  1.368 .      A
C968  C969  1.381 .      A
C969  C970  1.387 .      A
C970  C971  1.384 .      A
C971  C972  1.374 .      A
C972  N324  1.355 .      A
C975  N326  1.390 .      A
C975  N327  1.394 .      A
N326  C976  1.347 .      A
C976  C977  1.368 .      A
C976  C981  1.367 .      A
C977  C978  1.380 .      A
C978  C979  1.384 .      A
C979  C980  1.381 .      A
C980  C981  1.370 .      A
C981  N327  1.352 .      A
C984  N329  1.377 .      A
C984  N330  1.396 .      A
N329  C985  1.340 .      A
C985  C986  1.373 .      A
C985  C990  1.346 .      A
C986  C987  1.368 .      A
C987  C988  1.376 .      A
C988  C989  1.376 .      A
C989  C990  1.368 .      A
C990  N330  1.357 .      A
C993  N332  1.378 .      A
C993  N333  1.380 .      A
N332  C994  1.336 .      A
C994  C995  1.369 1_545  A
C994  C999  1.363 .      A
C995  C994  1.369 1_565  A
C995  C996  1.375 .      A
C996  C997  1.381 .      A
C997  C998  1.378 .      A
C998  C999  1.362 1_565  A
C999  C998  1.362 1_545  A
C999  N333  1.349 .      A
C1002 N335  1.385 .      A
C1002 N336  1.378 .      A
N335  C1003 1.357 .      A
C1003 C1004 1.378 .      A
C1003 C1008 1.367 .      A
C1004 C1005 1.385 .      A
C1005 C1006 1.390 .      A
C1006 C1007 1.383 .      A
C1007 C1008 1.373 .      A
C1008 N336  1.343 .      A
