data_str_m1_o12004_BSV
_audit_creation_date              2015-10-01T06:29:17-0700
_symmetry_space_group_name_H-M    P1
_symmetry_Int_Tables_number       1
_space_group_crystal_system       triclinic
loop_
_symmetry_equiv_pos_as_xyz
  x,y,z
_cell_length_a                    31.4835450
_cell_length_b                    32.1998259
_cell_length_c                    31.5642170
_cell_angle_alpha                 107.534620
_cell_angle_beta                  109.310743
_cell_angle_gamma                 111.673141
_cell_volume                      24576.4026914

loop_
_atom_site_label
_atom_site_type_symbol
_atom_site_description
_atom_site_fract_x
_atom_site_fract_y
_atom_site_fract_z
_atom_type_partial_charge
Zn1   Zn    Zn3+2 0.105736 0.334530 0.976108 0.000000
Zn2   Zn    Zn3+2 0.937065 0.318224 0.036638 0.000000
Zn3   Zn    Zn3+2 0.074601 0.558976 0.198666 0.000000
Zn4   Zn    Zn3+2 0.241012 0.820652 0.825896 0.000000
Zn5   Zn    Zn3+2 0.878127 0.089413 0.963243 0.000000
Zn6   Zn    Zn3+2 0.069639 0.601343 0.669535 0.000000
Zn7   Zn    Zn3+2 0.309968 0.820686 0.664850 0.000000
Zn8   Zn    Zn3+2 0.943463 0.104669 0.804020 0.000000
Zn9   Zn    Zn3+2 0.573729 0.059755 0.210578 0.000000
Zn10  Zn    Zn3+2 0.435559 0.098849 0.313106 0.000000
Zn11  Zn    Zn3+2 0.809235 0.056883 0.424884 0.000000
Zn12  Zn    Zn3+2 0.744663 0.605775 0.108037 0.000000
Zn13  Zn    Zn3+2 0.878651 0.869566 0.712058 0.000000
Zn14  Zn    Zn3+2 0.753490 0.824447 0.342193 0.000000
Zn15  Zn    Zn3+2 0.105550 0.857958 0.931188 0.000000
Zn16  Zn    Zn3+2 0.446319 0.332992 0.533448 0.000000
Zn17  Zn    Zn3+2 0.732978 0.992643 0.200329 0.000000
Zn18  Zn    Zn3+2 0.968976 0.195656 0.657239 0.000000
Zn19  Zn    Zn3+2 0.303027 0.571873 0.427166 0.000000
Zn20  Zn    Zn3+2 0.790584 0.824825 0.161143 0.000000
Zn21  Zn    Zn3+2 0.371370 0.110398 0.478167 0.000000
Zn22  Zn    Zn3+2 0.604259 0.319615 0.459457 0.000000
Zn23  Zn    Zn3+2 0.952159 0.928967 0.938951 0.000000
Zn24  Zn    Zn3+2 0.582884 0.596506 0.172115 0.000000
Zn25  Zn    Zn3+2 0.931592 0.701452 0.708724 0.000000
Zn26  Zn    Zn3+2 0.703533 0.056658 0.026923 0.000000
Zn27  Zn    Zn3+2 0.234109 0.723519 0.423162 0.000000
Zn28  Zn    Zn3+2 0.197511 0.362250 0.828025 0.000000
Zn29  Zn    Zn3+2 0.469577 0.506813 0.475063 0.000000
Zn30  Zn    Zn3+2 0.467328 0.056749 0.806855 0.000000
Zn31  Zn    Zn3+2 0.254599 0.510821 0.208259 0.000000
Zn32  Zn    Zn3+2 0.976517 0.362625 0.597482 0.000000
Zn33  Zn    Zn3+2 0.475673 0.986233 0.969515 0.000000
Zn34  Zn    Zn3+2 0.695572 0.223757 0.967858 0.000000
Zn35  Zn    Zn3+2 0.198909 0.924169 0.165840 0.000000
Zn36  Zn    Zn3+2 0.979195 0.691709 0.162115 0.000000
Zn37  Zn    Zn3+2 0.379216 0.360039 0.706826 0.000000
Zn38  Zn    Zn3+2 0.717656 0.728257 0.481874 0.000000
Zn39  Zn    Zn3+2 0.439276 0.201292 0.719447 0.000000
Zn40  Zn    Zn3+2 0.486202 0.572283 0.314565 0.000000
Zn41  Zn    Zn3+2 0.746863 0.219669 0.431227 0.000000
Zn42  Zn    Zn3+2 0.967962 0.850575 0.097085 0.000000
Zn43  Zn    Zn3+2 0.204713 0.417698 0.658779 0.000000
Zn44  Zn    Zn3+2 0.209761 0.870175 0.339179 0.000000
Zn45  Zn    Zn3+2 0.438859 0.427374 0.933907 0.000000
Zn46  Zn    Zn3+2 0.694879 0.560841 0.543422 0.000000
Zn47  Zn    Zn3+2 0.601662 0.365305 0.947827 0.000000
Zn48  Zn    Zn3+2 0.229858 0.594032 0.598857 0.000000
C1    C     C_3   0.836022 0.165209 0.863524 0.000000
N1    N     N_3   0.884885 0.187819 0.911007 0.000000
C2    C     C_3   0.869619 0.188340 0.949016 0.000000
C3    C     C_R   0.911552 0.204756 0.999601 0.000000
N2    N     N_R   0.917352 0.168886 0.012326 0.000000
C4    C     C_R   0.950324 0.197134 0.063389 0.000000
C5    C     C_R   0.972982 0.181903 0.095985 0.000000
C6    C     C_R   0.009210 0.218189 0.146702 0.000000
C7    C     C_R   0.023462 0.268825 0.163332 0.000000
C8    C     C_R   0.001216 0.283690 0.129664 0.000000
C9    C     C_R   0.962909 0.246937 0.080136 0.000000
N3    N     N_R   0.937227 0.253207 0.040869 0.000000
H1    H     H_    0.826115 0.193602 0.860647 0.000000
H2    H     H_    0.840333 0.149624 0.830510 0.000000
H3    H     H_    0.802003 0.134236 0.859855 0.000000
H4    H     H_    0.906781 0.225984 0.921145 0.000000
H5    H     H_    0.856671 0.215529 0.953810 0.000000
H6    H     H_    0.840128 0.148991 0.936142 0.000000
H7    H     H_    0.965429 0.143694 0.082315 0.000000
H8    H     H_    0.028069 0.207394 0.173114 0.000000
H9    H     H_    0.053219 0.297147 0.202640 0.000000
H10   H     H_    0.015445 0.323309 0.141823 0.000000
C10   C     C_3   0.860132 0.258293 0.126002 0.000000
N4    N     N_3   0.848556 0.251895 0.075092 0.000000
C11   C     C_3   0.834069 0.287888 0.066906 0.000000
C12   C     C_R   0.820794 0.281366 0.014440 0.000000
N5    N     N_R   0.857871 0.294087 0.999041 0.000000
C13   C     C_R   0.828434 0.283178 0.950591 0.000000
C14   C     C_R   0.841716 0.278896 0.913180 0.000000
C15   C     C_R   0.805278 0.266021 0.865154 0.000000
C16   C     C_R   0.754381 0.252609 0.853949 0.000000
C17   C     C_R   0.740161 0.251808 0.890751 0.000000
C18   C     C_R   0.777504 0.266278 0.938326 0.000000
N6    N     N_R   0.769993 0.261623 0.976520 0.000000
H11   H     H_    0.898913 0.262542 0.146235 0.000000
H12   H     H_    0.858413 0.290954 0.148381 0.000000
H13   H     H_    0.831566 0.223025 0.122107 0.000000
H14   H     H_    0.813233 0.217440 0.052063 0.000000
H15   H     H_    0.798842 0.279567 0.069824 0.000000
H16   H     H_    0.865195 0.327802 0.095556 0.000000
H17   H     H_    0.877873 0.280647 0.919331 0.000000
H18   H     H_    0.815539 0.262798 0.835327 0.000000
H19   H     H_    0.724913 0.239312 0.815448 0.000000
H20   H     H_    0.699706 0.235351 0.880824 0.000000
C19   C     C_3   0.114940 0.301719 0.088644 0.000000
N7    N     N_3   0.087749 0.306564 0.044652 0.000000
C20   C     C_3   0.038058 0.302375 0.037999 0.000000
C21   C     C_R   0.019728 0.323910 0.004429 0.000000
N8    N     N_R   0.043543 0.338557 0.977606 0.000000
C22   C     C_R   0.014541 0.354198 0.952745 0.000000
C23   C     C_R   0.018855 0.369813 0.917642 0.000000
C24   C     C_R   0.985288 0.384662 0.896240 0.000000
C25   C     C_R   0.948523 0.384546 0.910883 0.000000
C26   C     C_R   0.944330 0.368464 0.946011 0.000000
C27   C     C_R   0.976670 0.351400 0.965579 0.000000
N9    N     N_R   0.978354 0.331814 0.998399 0.000000
H21   H     H_    0.118902 0.268123 0.075218 0.000000
H22   H     H_    0.155832 0.334633 0.113296 0.000000
H23   H     H_    0.094321 0.298330 0.110974 0.000000
H24   H     H_    0.077846 0.274651 0.013997 0.000000
H25   H     H_    0.008089 0.262337 0.019372 0.000000
H26   H     H_    0.041439 0.320832 0.075137 0.000000
H27   H     H_    0.046256 0.368939 0.905475 0.000000
H28   H     H_    0.988017 0.396695 0.868274 0.000000
H29   H     H_    0.922823 0.397047 0.894740 0.000000
H30   H     H_    0.915523 0.369401 0.956734 0.000000
C28   C     C_3   0.057647 0.474595 0.033962 0.000000
N10   N     N_3   0.050026 0.459195 0.070984 0.000000
C29   C     C_3   0.001511 0.452913 0.070459 0.000000
C30   C     C_R   0.997850 0.441063 0.111076 0.000000
N11   N     N_R   0.972724 0.391106 0.102313 0.000000
C31   C     C_R   0.976196 0.398971 0.147929 0.000000
C32   C     C_R   0.960774 0.363037 0.162428 0.000000
C33   C     C_R   0.967992 0.377822 0.211325 0.000000
C34   C     C_R   0.991993 0.428933 0.245149 0.000000
C35   C     C_R   0.010394 0.465229 0.230649 0.000000
C36   C     C_R   0.002104 0.449708 0.181736 0.000000
N12   N     N_R   0.019200 0.478568 0.160791 0.000000
H31   H     H_    0.094301 0.512237 0.054052 0.000000
H32   H     H_    0.065808 0.449403 0.010412 0.000000
H33   H     H_    0.023001 0.474816 0.009972 0.000000
H34   H     H_    0.081129 0.488709 0.106834 0.000000
H35   H     H_    0.998036 0.486443 0.075314 0.000000
H36   H     H_    0.967007 0.420780 0.035061 0.000000
H37   H     H_    0.943861 0.324415 0.135431 0.000000
H38   H     H_    0.956060 0.349753 0.223653 0.000000
H39   H     H_    0.999556 0.440751 0.284068 0.000000
H40   H     H_    0.035569 0.504212 0.258883 0.000000
C37   C     C_3   0.167255 0.728955 0.906204 0.000000
N13   N     N_3   0.185844 0.781845 0.917789 0.000000
C38   C     C_3   0.151541 0.782305 0.874174 0.000000
C39   C     C_R   0.173465 0.834556 0.881330 0.000000
N14   N     N_R   0.158490 0.867528 0.902009 0.000000
C40   C     C_R   0.181094 0.905740 0.892601 0.000000
C41   C     C_R   0.172868 0.945142 0.896613 0.000000
C42   C     C_R   0.197911 0.979476 0.882810 0.000000
C43   C     C_R   0.228281 0.971809 0.861823 0.000000
C44   C     C_R   0.231546 0.928762 0.852952 0.000000
C45   C     C_R   0.207646 0.896196 0.868332 0.000000
N15   N     N_R   0.203961 0.851128 0.860096 0.000000
H41   H     H_    0.197401 0.726822 0.934527 0.000000
H42   H     H_    0.130015 0.711255 0.905806 0.000000
H43   H     H_    0.156172 0.705199 0.866951 0.000000
H44   H     H_    0.223852 0.799105 0.923311 0.000000
H45   H     H_    0.148358 0.758240 0.838865 0.000000
H46   H     H_    0.111796 0.768012 0.869333 0.000000
H47   H     H_    0.143051 0.945714 0.904433 0.000000
H48   H     H_    0.191422 0.010694 0.885819 0.000000
H49   H     H_    0.246608 0.997625 0.849417 0.000000
H50   H     H_    0.250402 0.919613 0.832634 0.000000
C46   C     C_3   0.096912 0.718089 0.630707 0.000000
N16   N     N_3   0.131988 0.709562 0.665696 0.000000
C47   C     C_3   0.131533 0.727879 0.713412 0.000000
C48   C     C_R   0.156192 0.710438 0.747321 0.000000
N17   N     N_R   0.134431 0.660343 0.736384 0.000000
C49   C     C_R   0.166324 0.663546 0.779566 0.000000
C50   C     C_R   0.164141 0.624705 0.789295 0.000000
C51   C     C_R   0.200101 0.635858 0.836694 0.000000
C52   C     C_R   0.236900 0.686167 0.873984 0.000000
C53   C     C_R   0.237851 0.725246 0.863680 0.000000
C54   C     C_R   0.203998 0.712856 0.814892 0.000000
N18   N     N_R   0.199144 0.743947 0.795508 0.000000
H51   H     H_    0.104660 0.715437 0.598562 0.000000
H52   H     H_    0.055328 0.689090 0.615485 0.000000
H53   H     H_    0.103401 0.756395 0.650795 0.000000
H54   H     H_    0.170028 0.731930 0.673138 0.000000
H55   H     H_    0.152076 0.769246 0.734259 0.000000
H56   H     H_    0.091424 0.716005 0.705182 0.000000
H57   H     H_    0.135383 0.586726 0.759701 0.000000
H58   H     H_    0.198776 0.605384 0.845034 0.000000
H59   H     H_    0.263861 0.694974 0.911685 0.000000
H60   H     H_    0.263974 0.764293 0.893709 0.000000
C55   C     C_3   0.381280 0.800706 0.799020 0.000000
N19   N     N_3   0.355966 0.828409 0.787214 0.000000
C56   C     C_3   0.299474 0.794571 0.762430 0.000000
C57   C     C_R   0.272111 0.819033 0.744077 0.000000
N20   N     N_R   0.242618 0.830176 0.763874 0.000000
C58   C     C_R   0.216759 0.842553 0.730905 0.000000
C59   C     C_R   0.179706 0.855389 0.730314 0.000000
C60   C     C_R   0.159124 0.867411 0.692908 0.000000
C61   C     C_R   0.175273 0.865799 0.656747 0.000000
C62   C     C_R   0.211622 0.851341 0.657034 0.000000
C63   C     C_R   0.231108 0.839358 0.694157 0.000000
N21   N     N_R   0.267449 0.825817 0.702048 0.000000
H61   H     H_    0.395865 0.809592 0.838554 0.000000
H62   H     H_    0.354691 0.758981 0.774859 0.000000
H63   H     H_    0.416970 0.814896 0.796449 0.000000
H64   H     H_    0.364317 0.838145 0.761065 0.000000
H65   H     H_    0.284779 0.757961 0.730366 0.000000
H66   H     H_    0.288397 0.786161 0.789444 0.000000
H67   H     H_    0.166170 0.854863 0.757323 0.000000
H68   H     H_    0.130145 0.878066 0.691701 0.000000
H69   H     H_    0.159209 0.875866 0.628233 0.000000
H70   H     H_    0.225724 0.850948 0.630231 0.000000
C64   C     C_3   0.340284 0.990043 0.000390 0.000000
N22   N     N_3   0.368353 0.967646 0.984042 0.000000
C65   C     C_3   0.338468 0.939462 0.928498 0.000000
C66   C     C_R   0.355839 0.905310 0.908770 0.000000
N23   N     N_R   0.407088 0.917999 0.934838 0.000000
C67   C     C_R   0.401750 0.872577 0.926815 0.000000
C68   C     C_R   0.440371 0.863216 0.947674 0.000000
C69   C     C_R   0.427372 0.813506 0.934460 0.000000
C70   C     C_R   0.376558 0.774005 0.897604 0.000000
C71   C     C_R   0.339018 0.784517 0.874731 0.000000
C72   C     C_R   0.350905 0.834300 0.893161 0.000000
N24   N     N_R   0.320052 0.853688 0.879788 0.000000
H71   H     H_    0.366358 0.019854 0.041111 0.000000
H72   H     H_    0.328674 0.007809 0.977147 0.000000
H73   H     H_    0.304166 0.960074 0.995397 0.000000
H74   H     H_    0.366965 0.941447 0.997398 0.000000
H75   H     H_    0.298207 0.914348 0.918168 0.000000
H76   H     H_    0.340473 0.964938 0.911601 0.000000
H77   H     H_    0.480358 0.894253 0.972005 0.000000
H78   H     H_    0.457508 0.805311 0.950129 0.000000
H79   H     H_    0.367289 0.734990 0.883686 0.000000
H80   H     H_    0.303805 0.754341 0.839987 0.000000
C73   C     C_3   0.021418 0.176447 0.015611 0.000000
N25   N     N_3   0.983404 0.172943 0.970880 0.000000
C74   C     C_3   0.964935 0.125903 0.928510 0.000000
C75   C     C_R   0.910388 0.103248 0.887112 0.000000
N26   N     N_R   0.869133 0.083010 0.895115 0.000000
C76   C     C_R   0.826805 0.060579 0.848814 0.000000
C77   C     C_R   0.774710 0.035210 0.835437 0.000000
C78   C     C_R   0.737679 0.020612 0.786776 0.000000
C79   C     C_R   0.753457 0.031948 0.753368 0.000000
C80   C     C_R   0.806266 0.055600 0.766998 0.000000
C81   C     C_R   0.842291 0.068252 0.814764 0.000000
N27   N     N_R   0.895430 0.092688 0.836823 0.000000
H81   H     H_    0.003263 0.144932 0.023345 0.000000
H82   H     H_    0.054846 0.177058 0.010570 0.000000
H83   H     H_    0.035550 0.211199 0.049824 0.000000
H84   H     H_    0.004304 0.200650 0.963695 0.000000
H85   H     H_    0.992704 0.130358 0.915115 0.000000
H86   H     H_    0.965102 0.101060 0.944435 0.000000
H87   H     H_    0.762957 0.027895 0.862119 0.000000
H88   H     H_    0.696269 0.001555 0.775183 0.000000
H89   H     H_    0.724138 0.021767 0.716126 0.000000
H90   H     H_    0.818638 0.065723 0.741757 0.000000
C82   C     C_3   0.902341 0.206027 0.806895 0.000000
N28   N     N_3   0.956967 0.239791 0.848031 0.000000
C83   C     C_3   0.971937 0.220451 0.882916 0.000000
C84   C     C_R   0.020172 0.217503 0.891020 0.000000
N29   N     N_R   0.014397 0.170448 0.867030 0.000000
C85   C     C_R   0.060921 0.177879 0.898687 0.000000
C86   C     C_R   0.076207 0.142919 0.895855 0.000000
C87   C     C_R   0.123748 0.157513 0.935496 0.000000
C88   C     C_R   0.154727 0.206307 0.977313 0.000000
C89   C     C_R   0.139129 0.241438 0.979290 0.000000
C90   C     C_R   0.092489 0.226490 0.938810 0.000000
N30   N     N_R   0.069833 0.254255 0.933481 0.000000
H91   H     H_    0.897291 0.213626 0.774190 0.000000
H92   H     H_    0.889895 0.165329 0.792690 0.000000
H93   H     H_    0.877210 0.215769 0.820037 0.000000
H94   H     H_    0.957877 0.272194 0.868505 0.000000
H95   H     H_    0.979521 0.244905 0.920265 0.000000
H96   H     H_    0.939603 0.182604 0.868767 0.000000
H97   H     H_    0.052322 0.105498 0.863579 0.000000
H98   H     H_    0.136491 0.130467 0.934212 0.000000
H99   H     H_    0.191188 0.216857 0.008587 0.000000
H100  H     H_    0.162024 0.278714 0.012442 0.000000
C91   C     C_3   0.033205 0.297138 0.823487 0.000000
N31   N     N_3   0.986808 0.249650 0.780917 0.000000
C92   C     C_3   0.997562 0.209305 0.775872 0.000000
C93   C     C_R   0.950831 0.161635 0.735287 0.000000
N32   N     N_R   0.925951 0.121328 0.742749 0.000000
C94   C     C_R   0.892925 0.083648 0.694122 0.000000
C95   C     C_R   0.859159 0.034353 0.678437 0.000000
C96   C     C_R   0.831782 0.999547 0.626899 0.000000
C97   C     C_R   0.844686 0.013747 0.593837 0.000000
C98   C     C_R   0.880059 0.063885 0.610758 0.000000
C99   C     C_R   0.899938 0.099588 0.660332 0.000000
N33   N     N_R   0.934901 0.150301 0.685203 0.000000
H101  H     H_    0.040561 0.297048 0.860043 0.000000
H102  H     H_    0.067687 0.300930 0.820280 0.000000
H103  H     H_    0.028366 0.329443 0.823138 0.000000
H104  H     H_    0.979241 0.250836 0.747193 0.000000
H105  H     H_    0.029613 0.215318 0.767638 0.000000
H106  H     H_    0.007034 0.205656 0.809491 0.000000
H107  H     H_    0.853981 0.024702 0.706366 0.000000
H108  H     H_    0.801968 0.960639 0.612246 0.000000
H109  H     H_    0.827213 0.985448 0.554634 0.000000
H110  H     H_    0.890348 0.072729 0.584521 0.000000
C100  C     C_3   0.764660 0.938284 0.683536 0.000000
N34   N     N_3   0.809750 0.931512 0.694242 0.000000
C101  C     C_3   0.850102 0.963834 0.747891 0.000000
C102  C     C_R   0.902275 0.982268 0.751346 0.000000
N35   N     N_R   0.918233 0.948704 0.735212 0.000000
C103  C     C_R   0.965373 0.980629 0.742297 0.000000
C104  C     C_R   0.002759 0.970243 0.738601 0.000000
C105  C     C_R   0.048374 0.009151 0.747092 0.000000
C106  C     C_R   0.055690 0.057383 0.759038 0.000000
C107  C     C_R   0.018969 0.068013 0.765856 0.000000
C108  C     C_R   0.975850 0.029695 0.760251 0.000000
N36   N     N_R   0.938546 0.033411 0.769932 0.000000
H111  H     H_    0.731135 0.906952 0.645248 0.000000
H112  H     H_    0.752933 0.937529 0.712912 0.000000
H113  H     H_    0.772893 0.973711 0.681610 0.000000
H114  H     H_    0.825760 0.938675 0.671496 0.000000
H115  H     H_    0.846657 0.996290 0.764596 0.000000
H116  H     H_    0.845874 0.942136 0.769070 0.000000
H117  H     H_    0.998585 0.934222 0.733234 0.000000
H118  H     H_    0.078622 0.001966 0.744585 0.000000
H119  H     H_    0.091148 0.087227 0.764909 0.000000
H120  H     H_    0.023966 0.105168 0.775800 0.000000
C109  C     C_3   0.527672 0.899099 0.059799 0.000000
N37   N     N_3   0.546340 0.953309 0.079650 0.000000
C110  C     C_3   0.502007 0.960073 0.073815 0.000000
C111  C     C_R   0.517231 0.013140 0.086505 0.000000
N38   N     N_R   0.536926 0.050594 0.135604 0.000000
C112  C     C_R   0.528634 0.085481 0.125754 0.000000
C113  C     C_R   0.539954 0.130389 0.160403 0.000000
C114  C     C_R   0.532597 0.163829 0.144185 0.000000
C115  C     C_R   0.516645 0.152180 0.093650 0.000000
C116  C     C_R   0.506759 0.106638 0.059326 0.000000
C117  C     C_R   0.509082 0.071938 0.075176 0.000000
N39   N     N_R   0.501020 0.025719 0.048268 0.000000
H121  H     H_    0.549136 0.892286 0.089382 0.000000
H122  H     H_    0.485235 0.876567 0.047106 0.000000
H123  H     H_    0.535721 0.885723 0.028413 0.000000
H124  H     H_    0.559540 0.965109 0.056760 0.000000
H125  H     H_    0.469243 0.935922 0.034154 0.000000
H126  H     H_    0.486863 0.950287 0.098302 0.000000
H127  H     H_    0.556853 0.139181 0.199511 0.000000
H128  H     H_    0.542689 0.200547 0.171240 0.000000
H129  H     H_    0.515445 0.180132 0.081845 0.000000
H130  H     H_    0.504774 0.102207 0.023759 0.000000
C118  C     C_3   0.629573 0.018663 0.326130 0.000000
N40   N     N_3   0.668112 0.065646 0.332113 0.000000
C119  C     C_3   0.644729 0.096693 0.332256 0.000000
C120  C     C_R   0.665465 0.136295 0.317724 0.000000
N41   N     N_R   0.702816 0.186651 0.353265 0.000000
C121  C     C_R   0.699049 0.210242 0.324579 0.000000
C122  C     C_R   0.722913 0.261687 0.340840 0.000000
C123  C     C_R   0.716257 0.277465 0.304237 0.000000
C124  C     C_R   0.686159 0.241805 0.252562 0.000000
C125  C     C_R   0.659753 0.190265 0.237205 0.000000
C126  C     C_R   0.664307 0.175516 0.274202 0.000000
N42   N     N_R   0.639275 0.128376 0.268757 0.000000
H131  H     H_    0.648910 0.005715 0.349994 0.000000
H132  H     H_    0.602088 0.023990 0.338671 0.000000
H133  H     H_    0.609008 0.988313 0.286294 0.000000
H134  H     H_    0.672735 0.056101 0.300323 0.000000
H135  H     H_    0.602493 0.071677 0.304460 0.000000
H136  H     H_    0.652642 0.116166 0.371282 0.000000
H137  H     H_    0.748370 0.289042 0.380694 0.000000
H138  H     H_    0.736117 0.317735 0.315968 0.000000
H139  H     H_    0.682852 0.254318 0.224083 0.000000
H140  H     H_    0.637697 0.162917 0.197318 0.000000
C127  C     C_3   0.667759 0.091042 0.166412 0.000000
N43   N     N_3   0.714610 0.096601 0.202078 0.000000
C128  C     C_3   0.703486 0.078377 0.235839 0.000000
C129  C     C_R   0.656234 0.025764 0.207942 0.000000
N44   N     N_R   0.606564 0.013514 0.202184 0.000000
C130  C     C_R   0.583709 0.963123 0.187592 0.000000
C131  C     C_R   0.532059 0.928331 0.170111 0.000000
C132  C     C_R   0.518340 0.879365 0.161569 0.000000
C133  C     C_R   0.555720 0.865387 0.168864 0.000000
C134  C     C_R   0.606218 0.899355 0.181823 0.000000
C135  C     C_R   0.618748 0.947553 0.188514 0.000000
N45   N     N_R   0.664144 0.985661 0.198270 0.000000
H141  H     H_    0.680063 0.125057 0.161164 0.000000
H142  H     H_    0.647903 0.055567 0.129871 0.000000
H143  H     H_    0.640788 0.089901 0.181639 0.000000
H144  H     H_    0.742421 0.135661 0.224667 0.000000
H145  H     H_    0.737550 0.076871 0.258400 0.000000
H146  H     H_    0.701488 0.106209 0.263221 0.000000
H147  H     H_    0.502542 0.938565 0.163681 0.000000
H148  H     H_    0.478336 0.851993 0.149455 0.000000
H149  H     H_    0.545023 0.827295 0.162980 0.000000
H150  H     H_    0.634341 0.887424 0.186322 0.000000
C136  C     C_3   0.554165 0.214688 0.267973 0.000000
N46   N     N_3   0.513361 0.163519 0.252165 0.000000
C137  C     C_3   0.538960 0.143176 0.279588 0.000000
C138  C     C_R   0.506239 0.087552 0.260541 0.000000
N47   N     N_R   0.471809 0.070580 0.278136 0.000000
C139  C     C_R   0.460639 0.022803 0.264776 0.000000
C140  C     C_R   0.428316 0.988954 0.274062 0.000000
C141  C     C_R   0.434226 0.948252 0.272419 0.000000
C142  C     C_R   0.470611 0.942069 0.260264 0.000000
C143  C     C_R   0.499356 0.975073 0.247372 0.000000
C144  C     C_R   0.490987 0.013248 0.245694 0.000000
N48   N     N_R   0.519250 0.052455 0.239714 0.000000
H151  H     H_    0.536266 0.231969 0.248242 0.000000
H152  H     H_    0.574338 0.238520 0.310057 0.000000
H153  H     H_    0.584925 0.214272 0.258745 0.000000
H154  H     H_    0.493907 0.140387 0.212744 0.000000
H155  H     H_    0.577116 0.153277 0.281828 0.000000
H156  H     H_    0.544832 0.160720 0.317723 0.000000
H157  H     H_    0.403568 0.996889 0.287880 0.000000
H158  H     H_    0.414102 0.923983 0.285076 0.000000
H159  H     H_    0.478330 0.912701 0.263127 0.000000
H160  H     H_    0.532349 0.975272 0.245953 0.000000
C145  C     C_3   0.830041 0.174863 0.352803 0.000000
N49   N     N_3   0.794349 0.166604 0.373142 0.000000
C146  C     C_3   0.817670 0.163302 0.419078 0.000000
C147  C     C_R   0.775864 0.137507 0.429617 0.000000
N50   N     N_R   0.747779 0.158326 0.442999 0.000000
C148  C     C_R   0.720301 0.125036 0.455395 0.000000
C149  C     C_R   0.692162 0.129479 0.480110 0.000000
C150  C     C_R   0.663347 0.088168 0.484404 0.000000
C151  C     C_R   0.663961 0.043793 0.465250 0.000000
C152  C     C_R   0.697042 0.042089 0.445875 0.000000
C153  C     C_R   0.726970 0.084084 0.443719 0.000000
N51   N     N_R   0.764077 0.091625 0.429423 0.000000
H161  H     H_    0.819324 0.188898 0.325329 0.000000
H162  H     H_    0.871492 0.202039 0.384233 0.000000
H163  H     H_    0.824692 0.138431 0.330512 0.000000
H164  H     H_    0.760851 0.130851 0.346334 0.000000
H165  H     H_    0.836146 0.140949 0.413797 0.000000
H166  H     H_    0.848889 0.201193 0.452257 0.000000
H167  H     H_    0.693958 0.164502 0.498405 0.000000
H168  H     H_    0.639816 0.090380 0.502376 0.000000
H169  H     H_    0.639308 0.010739 0.466395 0.000000
H170  H     H_    0.694172 0.006655 0.426957 0.000000
C154  C     C_3   0.658061 0.923013 0.300930 0.000000
N52   N     N_3   0.694917 0.974058 0.312803 0.000000
C155  C     C_3   0.729745 0.970912 0.293362 0.000000
C156  C     C_R   0.773945 0.021886 0.311066 0.000000
N53   N     N_R   0.787034 0.030179 0.276000 0.000000
C157  C     C_R   0.839141 0.065108 0.304966 0.000000
C158  C     C_R   0.874979 0.081528 0.289246 0.000000
C159  C     C_R   0.926527 0.119331 0.326355 0.000000
C160  C     C_R   0.941068 0.139880 0.377844 0.000000
C161  C     C_R   0.904822 0.121418 0.392943 0.000000
C162  C     C_R   0.854812 0.081113 0.355652 0.000000
N54   N     N_R   0.814356 0.053945 0.361108 0.000000
H171  H     H_    0.617310 0.915261 0.283061 0.000000
H172  H     H_    0.660407 0.893664 0.274063 0.000000
H173  H     H_    0.666795 0.920579 0.336719 0.000000
H174  H     H_    0.717813 0.995857 0.352508 0.000000
H175  H     H_    0.745103 0.947999 0.303974 0.000000
H176  H     H_    0.708661 0.951714 0.251496 0.000000
H177  H     H_    0.863701 0.065250 0.249229 0.000000
H178  H     H_    0.955513 0.133318 0.315126 0.000000
H179  H     H_    0.981279 0.169917 0.406427 0.000000
H180  H     H_    0.915877 0.138509 0.432851 0.000000
C163  C     C_3   0.800868 0.146686 0.592748 0.000000
N55   N     N_3   0.841685 0.136714 0.590838 0.000000
C164  C     C_3   0.852968 0.148968 0.553744 0.000000
C165  C     C_R   0.888425 0.132192 0.543734 0.000000
N56   N     N_R   0.936779 0.148133 0.582426 0.000000
C166  C     C_R   0.955954 0.125817 0.557390 0.000000
C167  C     C_R   0.005366 0.132818 0.576842 0.000000
C168  C     C_R   0.020622 0.113432 0.543515 0.000000
C169  C     C_R   0.987198 0.090212 0.491567 0.000000
C170  C     C_R   0.936561 0.081823 0.472790 0.000000
C171  C     C_R   0.921497 0.099214 0.506342 0.000000
N57   N     N_R   0.877261 0.100990 0.495644 0.000000
H181  H     H_    0.762139 0.114588 0.559782 0.000000
H182  H     H_    0.800413 0.149698 0.628499 0.000000
H183  H     H_    0.808275 0.182518 0.591623 0.000000
H184  H     H_    0.823472 0.097321 0.574929 0.000000
H185  H     H_    0.816274 0.129072 0.518725 0.000000
H186  H     H_    0.870552 0.190186 0.566603 0.000000
H187  H     H_    0.034618 0.159721 0.615406 0.000000
H188  H     H_    0.060581 0.121386 0.557937 0.000000
H189  H     H_    0.001792 0.080100 0.465997 0.000000
H190  H     H_    0.910152 0.064874 0.432903 0.000000
C172  C     C_3   0.915945 0.973735 0.401984 0.000000
N58   N     N_3   0.870774 0.954713 0.409140 0.000000
C173  C     C_3   0.827877 0.952668 0.370689 0.000000
C174  C     C_R   0.785396 0.941914 0.383213 0.000000
N59   N     N_R   0.755445 0.895046 0.378973 0.000000
C175  C     C_R   0.736245 0.908852 0.410387 0.000000
C176  C     C_R   0.698300 0.880007 0.418736 0.000000
C177  C     C_R   0.691316 0.904364 0.457924 0.000000
C178  C     C_R   0.721258 0.956904 0.487790 0.000000
C179  C     C_R   0.753943 0.985554 0.474605 0.000000
C180  C     C_R   0.756233 0.960289 0.432780 0.000000
N60   N     N_R   0.782600 0.981603 0.412360 0.000000
H191  H     H_    0.949676 0.975803 0.430707 0.000000
H192  H     H_    0.904519 0.950136 0.362776 0.000000
H193  H     H_    0.927525 0.010162 0.403211 0.000000
H194  H     H_    0.880658 0.980485 0.445217 0.000000
H195  H     H_    0.841307 0.989666 0.371369 0.000000
H196  H     H_    0.813095 0.923188 0.332163 0.000000
H197  H     H_    0.668914 0.841199 0.391992 0.000000
H198  H     H_    0.661621 0.882186 0.464770 0.000000
H199  H     H_    0.716524 0.975537 0.519160 0.000000
H200  H     H_    0.775720 0.026659 0.495354 0.000000
C181  C     C_3   0.891762 0.772392 0.245559 0.000000
N61   N     N_3   0.852984 0.768241 0.201422 0.000000
C182  C     C_3   0.801145 0.731841 0.189442 0.000000
C183  C     C_R   0.763472 0.714575 0.136583 0.000000
N62   N     N_R   0.753159 0.746539 0.119854 0.000000
C184  C     C_R   0.720569 0.714893 0.068986 0.000000
C185  C     C_R   0.698536 0.725784 0.031349 0.000000
C186  C     C_R   0.663665 0.685812 0.981632 0.000000
C187  C     C_R   0.655754 0.637370 0.969575 0.000000
C188  C     C_R   0.681103 0.627983 0.007484 0.000000
C189  C     C_R   0.712732 0.667089 0.056705 0.000000
N63   N     N_R   0.739738 0.665483 0.098640 0.000000
H201  H     H_    0.927496 0.810215 0.266576 0.000000
H202  H     H_    0.876139 0.765637 0.271124 0.000000
H203  H     H_    0.904622 0.746303 0.232566 0.000000
H204  H     H_    0.858069 0.752292 0.170840 0.000000
H205  H     H_    0.800425 0.698138 0.190839 0.000000
H206  H     H_    0.789349 0.748266 0.216249 0.000000
H207  H     H_    0.708524 0.764243 0.039676 0.000000
H208  H     H_    0.644914 0.693014 0.951533 0.000000
H209  H     H_    0.630468 0.607251 0.930230 0.000000
H210  H     H_    0.675733 0.591137 0.999590 0.000000
C190  C     C_3   0.632770 0.780758 0.167823 0.000000
N64   N     N_3   0.679209 0.777583 0.190960 0.000000
C191  C     C_3   0.721830 0.827691 0.233456 0.000000
C192  C     C_R   0.772475 0.828995 0.254632 0.000000
N65   N     N_R   0.795679 0.835470 0.303480 0.000000
C193  C     C_R   0.845889 0.850432 0.314068 0.000000
C194  C     C_R   0.888958 0.867477 0.359460 0.000000
C195  C     C_R   0.938226 0.887671 0.363458 0.000000
C196  C     C_R   0.944443 0.896540 0.324879 0.000000
C197  C     C_R   0.900768 0.880038 0.279700 0.000000
C198  C     C_R   0.852109 0.854299 0.274247 0.000000
N66   N     N_R   0.805985 0.838218 0.234657 0.000000
H211  H     H_    0.615228 0.784775 0.192221 0.000000
H212  H     H_    0.643047 0.814947 0.163241 0.000000
H213  H     H_    0.602588 0.745948 0.130651 0.000000
H214  H     H_    0.690784 0.767787 0.164012 0.000000
H215  H     H_    0.726976 0.857322 0.221965 0.000000
H216  H     H_    0.712355 0.838114 0.264311 0.000000
H217  H     H_    0.886591 0.873998 0.393846 0.000000
H218  H     H_    0.972745 0.903014 0.399540 0.000000
H219  H     H_    0.983555 0.917195 0.330577 0.000000
H220  H     H_    0.904525 0.889180 0.250510 0.000000
C199  C     C_3   0.776080 0.722673 0.996875 0.000000
N67   N     N_3   0.813193 0.775033 0.037495 0.000000
C200  C     C_3   0.844764 0.776618 0.084310 0.000000
C201  C     C_R   0.876592 0.830342 0.124659 0.000000
N68   N     N_R   0.919506 0.862691 0.123966 0.000000
C202  C     C_R   0.919087 0.905944 0.138081 0.000000
C203  C     C_R   0.948282 0.948030 0.135709 0.000000
C204  C     C_R   0.941035 0.988588 0.150550 0.000000
C205  C     C_R   0.896261 0.980723 0.153884 0.000000
C206  C     C_R   0.861464 0.933449 0.145053 0.000000
C207  C     C_R   0.878709 0.900348 0.147523 0.000000
N69   N     N_R   0.853132 0.853896 0.144108 0.000000
H221  H     H_    0.744118 0.720939 0.966445 0.000000
H222  H     H_    0.794415 0.706435 0.979399 0.000000
H223  H     H_    0.762333 0.698174 0.012427 0.000000
H224  H     H_    0.792062 0.792027 0.044533 0.000000
H225  H     H_    0.820521 0.752683 0.095046 0.000000
H226  H     H_    0.870875 0.763137 0.078825 0.000000
H227  H     H_    0.977051 0.949895 0.124074 0.000000
H228  H     H_    0.965875 0.023796 0.152608 0.000000
H229  H     H_    0.885708 0.009461 0.157691 0.000000
H230  H     H_    0.821557 0.922864 0.135108 0.000000
C208  C     C_3   0.893553 0.993932 0.301865 0.000000
N70   N     N_3   0.837169 0.955845 0.271772 0.000000
C209  C     C_3   0.822518 0.944837 0.219737 0.000000
C210  C     C_R   0.765556 0.908737 0.181678 0.000000
N71   N     N_R   0.747827 0.858826 0.150015 0.000000
C211  C     C_R   0.697114 0.840294 0.117400 0.000000
C212  C     C_R   0.657951 0.790184 0.083577 0.000000
C213  C     C_R   0.607152 0.778481 0.055545 0.000000
C214  C     C_R   0.595775 0.816683 0.063955 0.000000
C215  C     C_R   0.635035 0.866461 0.100560 0.000000
C216  C     C_R   0.685671 0.877799 0.127624 0.000000
N72   N     N_R   0.728430 0.922607 0.168227 0.000000
H231  H     H_    0.907166 0.013382 0.281404 0.000000
H232  H     H_    0.902585 0.023193 0.338101 0.000000
H233  H     H_    0.916519 0.975520 0.309048 0.000000
H234  H     H_    0.816670 0.970839 0.283232 0.000000
H235  H     H_    0.834393 0.979680 0.215737 0.000000
H236  H     H_    0.842881 0.925235 0.211021 0.000000
H237  H     H_    0.664580 0.760037 0.083580 0.000000
H238  H     H_    0.575774 0.739134 0.029385 0.000000
H239  H     H_    0.555698 0.807394 0.043078 0.000000
H240  H     H_    0.625402 0.895332 0.107909 0.000000
C217  C     C_3   0.262122 0.128554 0.563500 0.000000
N73   N     N_3   0.306279 0.120781 0.580742 0.000000
C218  C     C_3   0.350353 0.159189 0.582380 0.000000
C219  C     C_R   0.394988 0.150612 0.595485 0.000000
N74   N     N_R   0.432299 0.168063 0.645668 0.000000
C220  C     C_R   0.469606 0.161434 0.638511 0.000000
C221  C     C_R   0.519159 0.179964 0.675790 0.000000
C222  C     C_R   0.556915 0.180246 0.662535 0.000000
C223  C     C_R   0.545082 0.165349 0.612383 0.000000
C224  C     C_R   0.495379 0.149115 0.575774 0.000000
C225  C     C_R   0.456691 0.143278 0.588271 0.000000
N75   N     N_R   0.408542 0.134090 0.558805 0.000000
H241  H     H_    0.227243 0.098467 0.560083 0.000000
H242  H     H_    0.272637 0.166643 0.589843 0.000000
H243  H     H_    0.252022 0.128470 0.526968 0.000000
H244  H     H_    0.295336 0.085006 0.553971 0.000000
H245  H     H_    0.338493 0.156316 0.544266 0.000000
H246  H     H_    0.363306 0.197876 0.610125 0.000000
H247  H     H_    0.528867 0.198342 0.714667 0.000000
H248  H     H_    0.596969 0.196346 0.691517 0.000000
H249  H     H_    0.575727 0.170086 0.602554 0.000000
H250  H     H_    0.488940 0.146761 0.539801 0.000000
C226  C     C_3   0.522470 0.276122 0.627004 0.000000
N76   N     N_3   0.470659 0.264152 0.593282 0.000000
C227  C     C_3   0.456878 0.233516 0.541414 0.000000
C228  C     C_R   0.404712 0.220575 0.505315 0.000000
N77   N     N_R   0.363011 0.171137 0.475386 0.000000
C229  C     C_R   0.325816 0.176289 0.444330 0.000000
C230  C     C_R   0.274880 0.139357 0.406291 0.000000
C231  C     C_R   0.244182 0.153844 0.379141 0.000000
C232  C     C_R   0.265413 0.203860 0.388066 0.000000
C233  C     C_R   0.317090 0.240492 0.425802 0.000000
C234  C     C_R   0.345674 0.226135 0.454866 0.000000
N78   N     N_R   0.395322 0.255657 0.494614 0.000000
H251  H     H_    0.519252 0.244732 0.634737 0.000000
H252  H     H_    0.547669 0.281232 0.609436 0.000000
H253  H     H_    0.540337 0.311264 0.662878 0.000000
H254  H     H_    0.474486 0.298558 0.596469 0.000000
H255  H     H_    0.485269 0.254424 0.532140 0.000000
H256  H     H_    0.456124 0.198149 0.536343 0.000000
H257  H     H_    0.258613 0.100298 0.397676 0.000000
H258  H     H_    0.203596 0.125690 0.350043 0.000000
H259  H     H_    0.241529 0.214150 0.365128 0.000000
H260  H     H_    0.334315 0.278576 0.431029 0.000000
C235  C     C_3   0.377256 0.935836 0.397137 0.000000
N79   N     N_3   0.346985 0.952622 0.415797 0.000000
C236  C     C_3   0.326351 0.975794 0.388265 0.000000
C237  C     C_R   0.290472 0.986557 0.403813 0.000000
N80   N     N_R   0.240958 0.946872 0.386608 0.000000
C238  C     C_R   0.220921 0.971135 0.407889 0.000000
C239  C     C_R   0.172285 0.949727 0.403626 0.000000
C240  C     C_R   0.156212 0.982021 0.422304 0.000000
C241  C     C_R   0.189128 0.034329 0.444443 0.000000
C242  C     C_R   0.239943 0.055036 0.451853 0.000000
C243  C     C_R   0.255663 0.022708 0.434558 0.000000
N81   N     N_R   0.301841 0.034815 0.435019 0.000000
H261  H     H_    0.356315 0.893873 0.377945 0.000000
H262  H     H_    0.384473 0.950408 0.371010 0.000000
H263  H     H_    0.414818 0.948625 0.430092 0.000000
H264  H     H_    0.371540 0.979562 0.454469 0.000000
H265  H     H_    0.356939 0.010145 0.394346 0.000000
H266  H     H_    0.305008 0.950239 0.347115 0.000000
H267  H     H_    0.146332 0.909210 0.383550 0.000000
H268  H     H_    0.117021 0.966414 0.417432 0.000000
H269  H     H_    0.174704 0.058918 0.455965 0.000000
H270  H     H_    0.265881 0.095226 0.468159 0.000000
C244  C     C_3   0.346010 0.165082 0.329177 0.000000
N82   N     N_3   0.362284 0.129412 0.334631 0.000000
C245  C     C_3   0.385361 0.141329 0.387950 0.000000
C246  C     C_R   0.412305 0.113710 0.401730 0.000000
N83   N     N_R   0.415563 0.104563 0.442278 0.000000
C247  C     C_R   0.444796 0.082366 0.444151 0.000000
C248  C     C_R   0.457134 0.061209 0.474800 0.000000
C249  C     C_R   0.489950 0.042821 0.472309 0.000000
C250  C     C_R   0.502745 0.038154 0.433967 0.000000
C251  C     C_R   0.483573 0.052746 0.398724 0.000000
C252  C     C_R   0.456024 0.076433 0.405287 0.000000
N84   N     N_R   0.434943 0.094793 0.376503 0.000000
H271  H     H_    0.322401 0.167464 0.347924 0.000000
H272  H     H_    0.381118 0.203147 0.346266 0.000000
H273  H     H_    0.321674 0.151605 0.287850 0.000000
H274  H     H_    0.390223 0.135488 0.323980 0.000000
H275  H     H_    0.411649 0.182688 0.413692 0.000000
H276  H     H_    0.352441 0.127036 0.394136 0.000000
H277  H     H_    0.442327 0.059430 0.500853 0.000000
H278  H     H_    0.502651 0.028777 0.498119 0.000000
H279  H     H_    0.525933 0.020988 0.430206 0.000000
H280  H     H_    0.491118 0.045588 0.367688 0.000000
C253  C     C_3   0.578488 0.121284 0.384268 0.000000
N85   N     N_3   0.619292 0.171342 0.427494 0.000000
C254  C     C_3   0.627648 0.207962 0.409316 0.000000
C255  C     C_R   0.670985 0.257849 0.451164 0.000000
N86   N     N_R   0.664164 0.299494 0.461668 0.000000
C256  C     C_R   0.709334 0.334740 0.468488 0.000000
C257  C     C_R   0.714912 0.373105 0.456275 0.000000
C258  C     C_R   0.761558 0.403750 0.460142 0.000000
C259  C     C_R   0.801023 0.393223 0.472925 0.000000
C260  C     C_R   0.791864 0.349873 0.477020 0.000000
C261  C     C_R   0.744103 0.318745 0.471683 0.000000
N87   N     N_R   0.720718 0.268803 0.459762 0.000000
H281  H     H_    0.581643 0.091375 0.393085 0.000000
H282  H     H_    0.539407 0.115737 0.373022 0.000000
H283  H     H_    0.581628 0.118134 0.350423 0.000000
H284  H     H_    0.653919 0.171413 0.437002 0.000000
H285  H     H_    0.638720 0.198012 0.379770 0.000000
H286  H     H_    0.594027 0.211566 0.393738 0.000000
H287  H     H_    0.681658 0.375363 0.438082 0.000000
H288  H     H_    0.766173 0.434231 0.450825 0.000000
H289  H     H_    0.837356 0.415727 0.474694 0.000000
H290  H     H_    0.822442 0.342292 0.483017 0.000000
C262  C     C_3   0.452026 0.325254 0.382655 0.000000
N88   N     N_3   0.492624 0.317706 0.411523 0.000000
C263  C     C_3   0.477693 0.297591 0.442886 0.000000
C264  C     C_R   0.522994 0.322165 0.495557 0.000000
N89   N     N_R   0.570632 0.323853 0.507285 0.000000
C265  C     C_R   0.593225 0.341929 0.558704 0.000000
C266  C     C_R   0.637929 0.345811 0.591500 0.000000
C267  C     C_R   0.656013 0.369922 0.643519 0.000000
C268  C     C_R   0.627964 0.387014 0.661766 0.000000
C269  C     C_R   0.579531 0.376647 0.627964 0.000000
C270  C     C_R   0.562533 0.353377 0.576478 0.000000
N90   N     N_R   0.516474 0.338910 0.537232 0.000000
H291  H     H_    0.452311 0.357394 0.408492 0.000000
H292  H     H_    0.459471 0.333903 0.353537 0.000000
H293  H     H_    0.412776 0.290034 0.362492 0.000000
H294  H     H_    0.529219 0.351214 0.434190 0.000000
H295  H     H_    0.446129 0.303325 0.446188 0.000000
H296  H     H_    0.462185 0.256478 0.423913 0.000000
H297  H     H_    0.657430 0.328451 0.577881 0.000000
H298  H     H_    0.691691 0.374467 0.670084 0.000000
H299  H     H_    0.642198 0.405309 0.702471 0.000000
H300  H     H_    0.555049 0.383975 0.642087 0.000000
C271  C     C_3   0.550189 0.208579 0.513294 0.000000
N91   N     N_3   0.514087 0.203985 0.466534 0.000000
C272  C     C_3   0.539287 0.206013 0.435954 0.000000
C273  C     C_R   0.515183 0.213778 0.391530 0.000000
N92   N     N_R   0.475054 0.175674 0.342869 0.000000
C274  C     C_R   0.470147 0.201486 0.317029 0.000000
C275  C     C_R   0.430502 0.184414 0.269265 0.000000
C276  C     C_R   0.434987 0.218364 0.250255 0.000000
C277  C     C_R   0.479139 0.267370 0.278520 0.000000
C278  C     C_R   0.517659 0.283552 0.327201 0.000000
C279  C     C_R   0.510216 0.250805 0.346427 0.000000
N93   N     N_R   0.539789 0.260152 0.393959 0.000000
H301  H     H_    0.538908 0.218251 0.542585 0.000000
H302  H     H_    0.549303 0.172206 0.505089 0.000000
H303  H     H_    0.591200 0.239501 0.530059 0.000000
H304  H     H_    0.508845 0.234422 0.475782 0.000000
H305  H     H_    0.580404 0.238144 0.460546 0.000000
H306  H     H_    0.537800 0.170380 0.422603 0.000000
H307  H     H_    0.395923 0.146787 0.248052 0.000000
H308  H     H_    0.404610 0.206308 0.212728 0.000000
H309  H     H_    0.483384 0.292507 0.262019 0.000000
H310  H     H_    0.553773 0.319392 0.349611 0.000000
C280  C     C_3   0.565905 0.399654 0.332653 0.000000
N94   N     N_3   0.575554 0.414651 0.384806 0.000000
C281  C     C_3   0.628743 0.428441 0.416179 0.000000
C282  C     C_R   0.640868 0.436802 0.469024 0.000000
N95   N     N_R   0.680290 0.485384 0.509754 0.000000
C283  C     C_R   0.707784 0.474622 0.542723 0.000000
C284  C     C_R   0.760080 0.504932 0.578760 0.000000
C285  C     C_R   0.783754 0.486746 0.607129 0.000000
C286  C     C_R   0.755310 0.436784 0.595969 0.000000
C287  C     C_R   0.704910 0.404968 0.554427 0.000000
C288  C     C_R   0.682261 0.424423 0.527530 0.000000
N96   N     N_R   0.639038 0.397868 0.480647 0.000000
H311  H     H_    0.523816 0.384785 0.307154 0.000000
H312  H     H_    0.591925 0.432981 0.331386 0.000000
H313  H     H_    0.575141 0.370100 0.318741 0.000000
H314  H     H_    0.549363 0.384597 0.385980 0.000000
H315  H     H_    0.635217 0.398389 0.397387 0.000000
H316  H     H_    0.655953 0.463905 0.418903 0.000000
H317  H     H_    0.783259 0.540023 0.581081 0.000000
H318  H     H_    0.825027 0.510690 0.636109 0.000000
H319  H     H_    0.774017 0.421476 0.616597 0.000000
H320  H     H_    0.685925 0.365089 0.540900 0.000000
C289  C     C_3   0.981032 0.028407 0.869449 0.000000
N97   N     N_3   0.979697 0.024469 0.912906 0.000000
C290  C     C_3   0.926901 0.009180 0.904032 0.000000
C291  C     C_R   0.929463 0.018059 0.953053 0.000000
N98   N     N_R   0.937851 0.986892 0.971645 0.000000
C292  C     C_R   0.922218 0.994633 0.006978 0.000000
C293  C     C_R   0.899819 0.959691 0.021116 0.000000
C294  C     C_R   0.871663 0.967260 0.044875 0.000000
C295  C     C_R   0.870595 0.011726 0.059519 0.000000
C296  C     C_R   0.891191 0.045612 0.043547 0.000000
C297  C     C_R   0.912776 0.033820 0.013762 0.000000
N99   N     N_R   0.915112 0.048858 0.978822 0.000000
H321  H     H_    0.021029 0.040014 0.875258 0.000000
H322  H     H_    0.951027 0.990814 0.836141 0.000000
H323  H     H_    0.970938 0.056137 0.863858 0.000000
H324  H     H_    0.006367 0.060443 0.945015 0.000000
H325  H     H_    0.908896 0.026035 0.885039 0.000000
H326  H     H_    0.899810 0.969338 0.876514 0.000000
H327  H     H_    0.897507 0.923950 0.008878 0.000000
H328  H     H_    0.849515 0.937468 0.051300 0.000000
H329  H     H_    0.848953 0.017373 0.078825 0.000000
H330  H     H_    0.884259 0.076704 0.049116 0.000000
C298  C     C_3   0.056691 0.029904 0.110337 0.000000
N100  N     N_3   0.015781 0.986823 0.059918 0.000000
C299  C     C_3   0.019840 0.942539 0.055869 0.000000
C300  C     C_R   0.967444 0.894780 0.019719 0.000000
N101  N     N_R   0.945299 0.856753 0.030923 0.000000
C301  C     C_R   0.898952 0.822778 0.986883 0.000000
C302  C     C_R   0.863385 0.774910 0.973774 0.000000
C303  C     C_R   0.822017 0.742636 0.923502 0.000000
C304  C     C_R   0.816827 0.759341 0.887792 0.000000
C305  C     C_R   0.854422 0.807399 0.901602 0.000000
C306  C     C_R   0.894109 0.838892 0.951522 0.000000
N102  N     N_R   0.936613 0.884572 0.971028 0.000000
H331  H     H_    0.063626 0.065796 0.109174 0.000000
H332  H     H_    0.043916 0.028177 0.138792 0.000000
H333  H     H_    0.093881 0.029792 0.121807 0.000000
H334  H     H_    0.024421 0.995717 0.033596 0.000000
H335  H     H_    0.047588 0.941875 0.042072 0.000000
H336  H     H_    0.034374 0.945077 0.093341 0.000000
H337  H     H_    0.870908 0.762296 0.001625 0.000000
H338  H     H_    0.795260 0.703081 0.910478 0.000000
H339  H     H_    0.786507 0.733156 0.848137 0.000000
H340  H     H_    0.856877 0.816113 0.872455 0.000000
C307  C     C_3   0.943735 0.768783 0.909329 0.000000
N103  N     N_3   0.986456 0.821863 0.939811 0.000000
C308  C     C_3   0.983339 0.844635 0.906625 0.000000
C309  C     C_R   0.028898 0.897490 0.933831 0.000000
N104  N     N_R   0.022694 0.938616 0.948740 0.000000
C310  C     C_R   0.070973 0.978303 0.968171 0.000000
C311  C     C_R   0.087230 0.029091 0.989767 0.000000
C312  C     C_R   0.139343 0.064023 0.008038 0.000000
C313  C     C_R   0.174357 0.047754 0.007152 0.000000
C314  C     C_R   0.157666 0.996422 0.987776 0.000000
C315  C     C_R   0.104713 0.961623 0.965347 0.000000
N105  N     N_R   0.078924 0.909652 0.942406 0.000000
H341  H     H_    0.954813 0.746942 0.926332 0.000000
H342  H     H_    0.908227 0.764248 0.910203 0.000000
H343  H     H_    0.933573 0.752611 0.868789 0.000000
H344  H     H_    0.022224 0.823193 0.952295 0.000000
H345  H     H_    0.982057 0.822568 0.871789 0.000000
H346  H     H_    0.946547 0.845004 0.893987 0.000000
H347  H     H_    0.060624 0.041572 0.993261 0.000000
H348  H     H_    0.153335 0.104330 0.024821 0.000000
H349  H     H_    0.215511 0.075589 0.023665 0.000000
H350  H     H_    0.185894 0.984454 0.990762 0.000000
C316  C     C_3   0.058687 0.954473 0.851676 0.000000
N106  N     N_3   0.011326 0.952566 0.849524 0.000000
C317  C     C_3   0.969984 0.899835 0.824724 0.000000
C318  C     C_R   0.919481 0.893143 0.822445 0.000000
N107  N     N_R   0.908647 0.897168 0.862038 0.000000
C319  C     C_R   0.856069 0.876408 0.838141 0.000000
C320  C     C_R   0.824257 0.873112 0.859675 0.000000
C321  C     C_R   0.770429 0.840674 0.826997 0.000000
C322  C     C_R   0.750813 0.812194 0.775058 0.000000
C323  C     C_R   0.784220 0.819801 0.755060 0.000000
C324  C     C_R   0.836172 0.857272 0.787014 0.000000
N108  N     N_R   0.875493 0.870604 0.775938 0.000000
H351  H     H_    0.093455 0.992710 0.881801 0.000000
H352  H     H_    0.062374 0.924969 0.859986 0.000000
H353  H     H_    0.056651 0.947572 0.814353 0.000000
H354  H     H_    0.000308 0.963587 0.822122 0.000000
H355  H     H_    0.962768 0.883112 0.785748 0.000000
H356  H     H_    0.982051 0.878649 0.841886 0.000000
H357  H     H_    0.840853 0.891747 0.900752 0.000000
H358  H     H_    0.743786 0.834133 0.841975 0.000000
H359  H     H_    0.709364 0.783469 0.750159 0.000000
H360  H     H_    0.770327 0.794847 0.716060 0.000000
C325  C     C_3   0.604621 0.648106 0.060800 0.000000
N109  N     N_3   0.640090 0.649999 0.105967 0.000000
C326  C     C_3   0.635326 0.600479 0.092425 0.000000
C327  C     C_R   0.663816 0.598196 0.138941 0.000000
N110  N     N_R   0.708071 0.595594 0.148362 0.000000
C328  C     C_R   0.716339 0.584629 0.187210 0.000000
C329  C     C_R   0.750486 0.569466 0.206768 0.000000
C330  C     C_R   0.750821 0.558037 0.245598 0.000000
C331  C     C_R   0.718365 0.563109 0.264862 0.000000
C332  C     C_R   0.683977 0.577812 0.244032 0.000000
C333  C     C_R   0.680439 0.583898 0.202200 0.000000
N111  N     N_R   0.645545 0.591581 0.171879 0.000000
H361  H     H_    0.593731 0.676625 0.072755 0.000000
H362  H     H_    0.623155 0.658140 0.039152 0.000000
H363  H     H_    0.569903 0.609552 0.033598 0.000000
H364  H     H_    0.628003 0.657158 0.132922 0.000000
H365  H     H_    0.594522 0.569200 0.070220 0.000000
H366  H     H_    0.651416 0.592589 0.067019 0.000000
H367  H     H_    0.774666 0.564188 0.190680 0.000000
H368  H     H_    0.776858 0.545678 0.261329 0.000000
H369  H     H_    0.720056 0.555205 0.296060 0.000000
H370  H     H_    0.660395 0.584680 0.259868 0.000000
C334  C     C_3   0.415606 0.569720 0.127592 0.000000
N112  N     N_3   0.458148 0.561762 0.151047 0.000000
C335  C     C_3   0.480995 0.588636 0.206144 0.000000
C336  C     C_R   0.519559 0.576356 0.231508 0.000000
N113  N     N_R   0.509664 0.553681 0.260569 0.000000
C337  C     C_R   0.525858 0.520746 0.250667 0.000000
C338  C     C_R   0.521675 0.485305 0.266608 0.000000
C339  C     C_R   0.537967 0.452729 0.250218 0.000000
C340  C     C_R   0.565241 0.461114 0.224716 0.000000
C341  C     C_R   0.571560 0.499071 0.211261 0.000000
C342  C     C_R   0.549238 0.527095 0.222027 0.000000
N114  N     N_R   0.548354 0.564107 0.210440 0.000000
H371  H     H_    0.402050 0.554877 0.086078 0.000000
H372  H     H_    0.382222 0.549433 0.132597 0.000000
H373  H     H_    0.429085 0.610797 0.145560 0.000000
H374  H     H_    0.487188 0.578702 0.143025 0.000000
H375  H     H_    0.498938 0.629987 0.221757 0.000000
H376  H     H_    0.448796 0.573083 0.213744 0.000000
H377  H     H_    0.507213 0.483622 0.292078 0.000000
H378  H     H_    0.531150 0.421901 0.258666 0.000000
H379  H     H_    0.582300 0.438362 0.216039 0.000000
H380  H     H_    0.594654 0.506466 0.193778 0.000000
C343  C     C_3   0.779557 0.693127 0.312830 0.000000
N115  N     N_3   0.726695 0.685088 0.294199 0.000000
C344  C     C_3   0.717685 0.706561 0.260082 0.000000
C345  C     C_R   0.672291 0.713792 0.253149 0.000000
N116  N     N_R   0.619218 0.678139 0.216525 0.000000
C346  C     C_R   0.597874 0.708142 0.222986 0.000000
C347  C     C_R   0.546233 0.695935 0.199523 0.000000
C348  C     C_R   0.534086 0.732923 0.215247 0.000000
C349  C     C_R   0.572828 0.781695 0.255060 0.000000
C350  C     C_R   0.624460 0.794064 0.278865 0.000000
C351  C     C_R   0.635694 0.757009 0.261755 0.000000
N117  N     N_R   0.682706 0.761638 0.281786 0.000000
H381  H     H_    0.779076 0.661203 0.287135 0.000000
H382  H     H_    0.807453 0.727669 0.314704 0.000000
H383  H     H_    0.793609 0.694834 0.350798 0.000000
H384  H     H_    0.725406 0.704925 0.325944 0.000000
H385  H     H_    0.752039 0.744867 0.278010 0.000000
H386  H     H_    0.713731 0.684599 0.223385 0.000000
H387  H     H_    0.514869 0.658822 0.169664 0.000000
H388  H     H_    0.493657 0.723357 0.196476 0.000000
H389  H     H_    0.562724 0.810094 0.267163 0.000000
H390  H     H_    0.655118 0.831906 0.309295 0.000000
C352  C     C_3   0.530224 0.423864 0.101349 0.000000
N118  N     N_3   0.541050 0.473679 0.106658 0.000000
C353  C     C_3   0.512055 0.463670 0.055710 0.000000
C354  C     C_R   0.505541 0.505056 0.052325 0.000000
N119  N     N_R   0.526076 0.553351 0.092000 0.000000
C355  C     C_R   0.504391 0.572829 0.065570 0.000000
C356  C     C_R   0.515120 0.621776 0.083460 0.000000
C357  C     C_R   0.491280 0.635569 0.049637 0.000000
C358  C     C_R   0.461075 0.601269 0.997817 0.000000
C359  C     C_R   0.453931 0.552995 0.980269 0.000000
C360  C     C_R   0.474651 0.539160 0.014407 0.000000
N120  N     N_R   0.475483 0.495881 0.003977 0.000000
H391  H     H_    0.558133 0.426112 0.135025 0.000000
H392  H     H_    0.489928 0.401352 0.094565 0.000000
H393  H     H_    0.536809 0.405364 0.070985 0.000000
H394  H     H_    0.580344 0.494432 0.116645 0.000000
H395  H     H_    0.532802 0.456723 0.035001 0.000000
H396  H     H_    0.471740 0.431371 0.037398 0.000000
H397  H     H_    0.547289 0.650334 0.120741 0.000000
H398  H     H_    0.500422 0.674523 0.062993 0.000000
H399  H     H_    0.446363 0.613728 0.971193 0.000000
H400  H     H_    0.436357 0.527261 0.940936 0.000000
C361  C     C_3   0.838126 0.745362 0.776646 0.000000
N121  N     N_3   0.882615 0.772236 0.770721 0.000000
C362  C     C_3   0.862611 0.765458 0.719042 0.000000
C363  C     C_R   0.906156 0.786947 0.708691 0.000000
N122  N     N_R   0.914778 0.826448 0.697304 0.000000
C364  C     C_R   0.947543 0.825278 0.678048 0.000000
C365  C     C_R   0.965618 0.851689 0.654354 0.000000
C366  C     C_R   0.993917 0.839411 0.632699 0.000000
C367  C     C_R   0.003343 0.800864 0.633770 0.000000
C368  C     C_R   0.985407 0.774640 0.657552 0.000000
C369  C     C_R   0.958694 0.788250 0.680108 0.000000
N123  N     N_R   0.933766 0.763564 0.699945 0.000000
H401  H     H_    0.851520 0.736798 0.808255 0.000000
H402  H     H_    0.821901 0.769198 0.786514 0.000000
H403  H     H_    0.806045 0.709559 0.740967 0.000000
H404  H     H_    0.904583 0.754815 0.774478 0.000000
H405  H     H_    0.835337 0.725198 0.690433 0.000000
H406  H     H_    0.839959 0.784139 0.713158 0.000000
H407  H     H_    0.957924 0.880685 0.650936 0.000000
H408  H     H_    0.007989 0.859539 0.613796 0.000000
H409  H     H_    0.024800 0.791283 0.615955 0.000000
H410  H     H_    0.992003 0.744138 0.658155 0.000000
C370  C     C_3   0.037639 0.644234 0.812498 0.000000
N124  N     N_3   0.013293 0.630857 0.758716 0.000000
C371  C     C_3   0.037905 0.674829 0.752554 0.000000
C372  C     C_R   0.009582 0.658886 0.697503 0.000000
N125  N     N_R   0.015270 0.625463 0.663091 0.000000
C373  C     C_R   0.969215 0.601402 0.620354 0.000000
C374  C     C_R   0.949765 0.557066 0.578036 0.000000
C375  C     C_R   0.898219 0.532584 0.540030 0.000000
C376  C     C_R   0.865515 0.548418 0.549289 0.000000
C377  C     C_R   0.885746 0.590761 0.594891 0.000000
C378  C     C_R   0.938436 0.620120 0.627900 0.000000
N126  N     N_R   0.963627 0.659457 0.675987 0.000000
H411  H     H_    0.010687 0.615848 0.818386 0.000000
H412  H     H_    0.073932 0.643093 0.824012 0.000000
H413  H     H_    0.048349 0.682981 0.836898 0.000000
H414  H     H_    0.972999 0.616222 0.742639 0.000000
H415  H     H_    0.036740 0.707168 0.775133 0.000000
H416  H     H_    0.079220 0.686695 0.765809 0.000000
H417  H     H_    0.974562 0.542124 0.575112 0.000000
H418  H     H_    0.882760 0.499450 0.504748 0.000000
H419  H     H_    0.823756 0.526376 0.522019 0.000000
H420  H     H_    0.860859 0.598294 0.606546 0.000000
C379  C     C_3   0.078090 0.852293 0.766172 0.000000
N127  N     N_3   0.054179 0.808043 0.772522 0.000000
C380  C     C_3   0.036787 0.821672 0.808943 0.000000
C381  C     C_R   0.017807 0.780525 0.821958 0.000000
N128  N     N_R   0.975721 0.731666 0.786877 0.000000
C382  C     C_R   0.974573 0.708620 0.816239 0.000000
C383  C     C_R   0.943092 0.657995 0.801111 0.000000
C384  C     C_R   0.946329 0.643216 0.838335 0.000000
C385  C     C_R   0.982943 0.678305 0.889430 0.000000
C386  C     C_R   0.016417 0.728437 0.903699 0.000000
C387  C     C_R   0.012448 0.742682 0.866322 0.000000
N129  N     N_R   0.040944 0.788983 0.871450 0.000000
H421  H     H_    0.082697 0.840759 0.732163 0.000000
H422  H     H_    0.053838 0.869991 0.762198 0.000000
H423  H     H_    0.117391 0.880761 0.798897 0.000000
H424  H     H_    0.083308 0.800408 0.788289 0.000000
H425  H     H_    0.069966 0.856484 0.844404 0.000000
H426  H     H_    0.004957 0.828782 0.793158 0.000000
H427  H     H_    0.916147 0.630184 0.761176 0.000000
H428  H     H_    0.920825 0.603926 0.827409 0.000000
H429  H     H_    0.984806 0.666694 0.918430 0.000000
H430  H     H_    0.040654 0.756311 0.943619 0.000000
C388  C     C_3   0.877262 0.669559 0.553316 0.000000
N130  N     N_3   0.872487 0.682033 0.599300 0.000000
C389  C     C_3   0.819127 0.648378 0.585352 0.000000
C390  C     C_R   0.811900 0.637356 0.625808 0.000000
N131  N     N_R   0.850989 0.654434 0.674474 0.000000
C391  C     C_R   0.822686 0.630921 0.693114 0.000000
C392  C     C_R   0.837113 0.641509 0.742750 0.000000
C393  C     C_R   0.802360 0.610040 0.752472 0.000000
C394  C     C_R   0.753378 0.569221 0.712450 0.000000
C395  C     C_R   0.737239 0.563156 0.663555 0.000000
C396  C     C_R   0.771441 0.597580 0.656057 0.000000
N132  N     N_R   0.762600 0.601984 0.613321 0.000000
H431  H     H_    0.919249 0.690366 0.564107 0.000000
H432  H     H_    0.861897 0.628468 0.531103 0.000000
H433  H     H_    0.856100 0.681838 0.529129 0.000000
H434  H     H_    0.872628 0.715720 0.605944 0.000000
H435  H     H_    0.797604 0.667077 0.575581 0.000000
H436  H     H_    0.803128 0.611064 0.553666 0.000000
H437  H     H_    0.872476 0.675903 0.773808 0.000000
H438  H     H_    0.813385 0.617542 0.791442 0.000000
H439  H     H_    0.726532 0.544057 0.719936 0.000000
H440  H     H_    0.698147 0.533876 0.633222 0.000000
C397  C     C_3   0.765682 0.160735 0.944648 0.000000
N133  N     N_3   0.754220 0.113431 0.944991 0.000000
C398  C     C_3   0.791724 0.123351 0.993914 0.000000
C399  C     C_R   0.785795 0.074957 0.987406 0.000000
N134  N     N_R   0.749229 0.042555 0.994516 0.000000
C400  C     C_R   0.751700 0.000306 0.977078 0.000000
C401  C     C_R   0.731461 0.958699 0.983568 0.000000
C402  C     C_R   0.738895 0.919387 0.962904 0.000000
C403  C     C_R   0.767337 0.923043 0.937322 0.000000
C404  C     C_R   0.790667 0.966912 0.933997 0.000000
C405  C     C_R   0.783842 0.005950 0.956215 0.000000
N135  N     N_R   0.808577 0.054209 0.964532 0.000000
H441  H     H_    0.767953 0.157877 0.910013 0.000000
H442  H     H_    0.736010 0.170091 0.945792 0.000000
H443  H     H_    0.802799 0.191283 0.978399 0.000000
H444  H     H_    0.758354 0.091932 0.916295 0.000000
H445  H     H_    0.832502 0.149858 0.006497 0.000000
H446  H     H_    0.783099 0.137769 0.023919 0.000000
H447  H     H_    0.711712 0.957669 0.005305 0.000000
H448  H     H_    0.723159 0.885939 0.967349 0.000000
H449  H     H_    0.773866 0.892537 0.922831 0.000000
H450  H     H_    0.814465 0.970612 0.915801 0.000000
C406  C     C_3   0.621181 0.148282 0.086321 0.000000
N136  N     N_3   0.623139 0.101915 0.070929 0.000000
C407  C     C_3   0.591628 0.071892 0.016042 0.000000
C408  C     C_R   0.586560 0.020999 0.996911 0.000000
N137  N     N_R   0.623984 0.011906 0.989897 0.000000
C409  C     C_R   0.594712 0.964019 0.951006 0.000000
C410  C     C_R   0.610824 0.938323 0.923328 0.000000
C411  C     C_R   0.574585 0.888686 0.885042 0.000000
C412  C     C_R   0.522912 0.866751 0.874345 0.000000
C413  C     C_R   0.506699 0.895624 0.899248 0.000000
C414  C     C_R   0.543544 0.943794 0.938920 0.000000
N138  N     N_R   0.536839 0.979052 0.967589 0.000000
H451  H     H_    0.660086 0.181978 0.106289 0.000000
H452  H     H_    0.596086 0.149486 0.053064 0.000000
H453  H     H_    0.608732 0.152229 0.115216 0.000000
H454  H     H_    0.602345 0.080670 0.083779 0.000000
H455  H     H_    0.551648 0.064811 0.004475 0.000000
H456  H     H_    0.606378 0.092844 0.997739 0.000000
H457  H     H_    0.649866 0.956838 0.929567 0.000000
H458  H     H_    0.586441 0.867187 0.863187 0.000000
H459  H     H_    0.494954 0.827815 0.844409 0.000000
H460  H     H_    0.466195 0.881946 0.886354 0.000000
C415  C     C_3   0.629804 0.017907 0.873220 0.000000
N139  N     N_3   0.645027 0.044871 0.926746 0.000000
C416  C     C_3   0.650126 0.093952 0.938040 0.000000
C417  C     C_R   0.688694 0.134505 0.993405 0.000000
N140  N     N_R   0.707587 0.123756 0.032506 0.000000
C418  C     C_R   0.726828 0.167122 0.074716 0.000000
C419  C     C_R   0.744947 0.175993 0.124509 0.000000
C420  C     C_R   0.762208 0.223469 0.162343 0.000000
C421  C     C_R   0.756039 0.259099 0.149165 0.000000
C422  C     C_R   0.732835 0.247392 0.098194 0.000000
C423  C     C_R   0.721375 0.202459 0.061768 0.000000
N141  N     N_R   0.699522 0.184258 0.010506 0.000000
H461  H     H_    0.625266 0.980006 0.863552 0.000000
H462  H     H_    0.591814 0.012468 0.849148 0.000000
H463  H     H_    0.660272 0.038720 0.865128 0.000000
H464  H     H_    0.681743 0.051248 0.947319 0.000000
H465  H     H_    0.663030 0.105460 0.913847 0.000000
H466  H     H_    0.610917 0.089225 0.927331 0.000000
H467  H     H_    0.743153 0.146401 0.133939 0.000000
H468  H     H_    0.776960 0.231405 0.201774 0.000000
H469  H     H_    0.765925 0.294618 0.178412 0.000000
H470  H     H_    0.721084 0.271263 0.087306 0.000000
C424  C     C_3   0.631054 0.890845 0.005757 0.000000
N142  N     N_3   0.641885 0.942883 0.028540 0.000000
C425  C     C_3   0.668861 0.964981 0.083461 0.000000
C426  C     C_R   0.715068 0.016849 0.111154 0.000000
N143  N     N_R   0.731277 0.049919 0.092313 0.000000
C427  C     C_R   0.779676 0.086743 0.131928 0.000000
C428  C     C_R   0.816100 0.127998 0.133380 0.000000
C429  C     C_R   0.859658 0.166142 0.180556 0.000000
C430  C     C_R   0.863822 0.163257 0.224606 0.000000
C431  C     C_R   0.827422 0.120072 0.221306 0.000000
C432  C     C_R   0.788744 0.079611 0.173727 0.000000
N144  N     N_R   0.749362 0.034017 0.161303 0.000000
H471  H     H_    0.617640 0.876071 0.964510 0.000000
H472  H     H_    0.666739 0.888816 0.022777 0.000000
H473  H     H_    0.598583 0.865890 0.009067 0.000000
H474  H     H_    0.605058 0.938338 0.019746 0.000000
H475  H     H_    0.641242 0.965076 0.097713 0.000000
H476  H     H_    0.686246 0.943583 0.094303 0.000000
H477  H     H_    0.809827 0.131704 0.099359 0.000000
H478  H     H_    0.888531 0.199865 0.183530 0.000000
H479  H     H_    0.895189 0.195278 0.261800 0.000000
H480  H     H_    0.826876 0.120234 0.255034 0.000000
C433  C     C_3   0.261484 0.698821 0.287379 0.000000
N145  N     N_3   0.222755 0.658316 0.289290 0.000000
C434  C     C_3   0.182942 0.670267 0.289780 0.000000
C435  C     C_R   0.151768 0.642453 0.309200 0.000000
N146  N     N_R   0.100260 0.602996 0.275970 0.000000
C436  C     C_R   0.079016 0.604954 0.307262 0.000000
C437  C     C_R   0.027356 0.578259 0.295535 0.000000
C438  C     C_R   0.015205 0.590151 0.334203 0.000000
C439  C     C_R   0.054043 0.628814 0.383653 0.000000
C440  C     C_R   0.105664 0.655389 0.394992 0.000000
C441  C     C_R   0.116811 0.641894 0.356428 0.000000
N147  N     N_R   0.163650 0.665052 0.359565 0.000000
H481  H     H_    0.281086 0.683778 0.269382 0.000000
H482  H     H_    0.241997 0.712730 0.263898 0.000000
H483  H     H_    0.291240 0.730802 0.326789 0.000000
H484  H     H_    0.241449 0.659926 0.324043 0.000000
H485  H     H_    0.202596 0.711312 0.314331 0.000000
H486  H     H_    0.155509 0.660336 0.250722 0.000000
H487  H     H_    0.996615 0.548526 0.257537 0.000000
H488  H     H_    0.974862 0.569478 0.325574 0.000000
H489  H     H_    0.043905 0.638231 0.413313 0.000000
H490  H     H_    0.136523 0.686189 0.432863 0.000000
C442  C     C_3   0.161090 0.833814 0.528272 0.000000
N148  N     N_3   0.175246 0.796145 0.531060 0.000000
C443  C     C_3   0.221398 0.808339 0.525065 0.000000
C444  C     C_R   0.244759 0.777772 0.536833 0.000000
N149  N     N_R   0.276548 0.790458 0.587136 0.000000
C445  C     C_R   0.306726 0.771577 0.581093 0.000000
C446  C     C_R   0.357906 0.790714 0.617451 0.000000
C447  C     C_R   0.391318 0.780959 0.603811 0.000000
C448  C     C_R   0.371032 0.746793 0.554673 0.000000
C449  C     C_R   0.318201 0.723761 0.520964 0.000000
C450  C     C_R   0.289519 0.743100 0.531938 0.000000
N150  N     N_R   0.250442 0.746108 0.500729 0.000000
H491  H     H_    0.121734 0.821215 0.524999 0.000000
H492  H     H_    0.190540 0.871240 0.563304 0.000000
H493  H     H_    0.159929 0.838267 0.494562 0.000000
H494  H     H_    0.144196 0.760708 0.500022 0.000000
H495  H     H_    0.210544 0.800317 0.485242 0.000000
H496  H     H_    0.251601 0.849335 0.551478 0.000000
H497  H     H_    0.375369 0.819857 0.655473 0.000000
H498  H     H_    0.432258 0.798529 0.631722 0.000000
H499  H     H_    0.395345 0.734614 0.544816 0.000000
H500  H     H_    0.297560 0.684425 0.496146 0.000000
C451  C     C_3   0.105115 0.759450 0.390530 0.000000
N151  N     N_3   0.145640 0.792890 0.384065 0.000000
C452  C     C_3   0.161635 0.762396 0.356909 0.000000
C453  C     C_R   0.219016 0.792882 0.376620 0.000000
N152  N     N_R   0.240519 0.841583 0.383230 0.000000
C454  C     C_R   0.280517 0.868364 0.431968 0.000000
C455  C     C_R   0.296049 0.916246 0.466787 0.000000
C456  C     C_R   0.324665 0.933443 0.517977 0.000000
C457  C     C_R   0.335100 0.901875 0.534505 0.000000
C458  C     C_R   0.318222 0.852876 0.500067 0.000000
C459  C     C_R   0.288552 0.836075 0.448908 0.000000
N153  N     N_R   0.251258 0.787236 0.413275 0.000000
H501  H     H_    0.075247 0.723446 0.353927 0.000000
H502  H     H_    0.123061 0.750713 0.420305 0.000000
H503  H     H_    0.085567 0.778966 0.403108 0.000000
H504  H     H_    0.177532 0.820294 0.420678 0.000000
H505  H     H_    0.155473 0.733115 0.367616 0.000000
H506  H     H_    0.137184 0.744298 0.314998 0.000000
H507  H     H_    0.281879 0.938745 0.456608 0.000000
H508  H     H_    0.335112 0.970251 0.545422 0.000000
H509  H     H_    0.351325 0.915025 0.574666 0.000000
H510  H     H_    0.323328 0.826949 0.513037 0.000000
C460  C     C_3   0.141824 0.577036 0.409085 0.000000
N154  N     N_3   0.197451 0.613268 0.430447 0.000000
C461  C     C_3   0.212535 0.601174 0.391535 0.000000
C462  C     C_R   0.265599 0.642796 0.408406 0.000000
N155  N     N_R   0.309143 0.638273 0.424595 0.000000
C463  C     C_R   0.348318 0.684891 0.437752 0.000000
C464  C     C_R   0.400970 0.702971 0.453948 0.000000
C465  C     C_R   0.433811 0.753443 0.468541 0.000000
C466  C     C_R   0.413896 0.784949 0.465360 0.000000
C467  C     C_R   0.360626 0.765931 0.446643 0.000000
C468  C     C_R   0.328913 0.715773 0.432389 0.000000
N156  N     N_R   0.277218 0.691158 0.416158 0.000000
H511  H     H_    0.126045 0.595655 0.429337 0.000000
H512  H     H_    0.118764 0.562853 0.367567 0.000000
H513  H     H_    0.136487 0.544303 0.415255 0.000000
H514  H     H_    0.201525 0.648850 0.439676 0.000000
H515  H     H_    0.213422 0.566028 0.383955 0.000000
H516  H     H_    0.184759 0.595735 0.355668 0.000000
H517  H     H_    0.416671 0.678774 0.454077 0.000000
H518  H     H_    0.475379 0.768343 0.482294 0.000000
H519  H     H_    0.439980 0.824247 0.476747 0.000000
H520  H     H_    0.344621 0.789676 0.442749 0.000000
C469  C     C_3   0.150795 0.259764 0.654979 0.000000
N157  N     N_3   0.160847 0.311339 0.670642 0.000000
C470  C     C_3   0.204950 0.344253 0.722656 0.000000
C471  C     C_R   0.206572 0.392595 0.747185 0.000000
N158  N     N_R   0.214717 0.427981 0.729988 0.000000
C472  C     C_R   0.228327 0.469880 0.770387 0.000000
C473  C     C_R   0.247336 0.518460 0.776554 0.000000
C474  C     C_R   0.260639 0.556863 0.821926 0.000000
C475  C     C_R   0.255336 0.546167 0.859906 0.000000
C476  C     C_R   0.238815 0.497499 0.853965 0.000000
C477  C     C_R   0.224066 0.458955 0.808083 0.000000
N159  N     N_R   0.209604 0.409475 0.794383 0.000000
H521  H     H_    0.137033 0.239465 0.613897 0.000000
H522  H     H_    0.186821 0.260293 0.676795 0.000000
H523  H     H_    0.118363 0.237806 0.659754 0.000000
H524  H     H_    0.127832 0.311098 0.670933 0.000000
H525  H     H_    0.202901 0.325309 0.746109 0.000000
H526  H     H_    0.242165 0.352531 0.722811 0.000000
H527  H     H_    0.251743 0.526564 0.746951 0.000000
H528  H     H_    0.275681 0.595473 0.828100 0.000000
H529  H     H_    0.267192 0.576783 0.895747 0.000000
H530  H     H_    0.241294 0.491719 0.886280 0.000000
C478  C     C_3   0.126360 0.214807 0.846112 0.000000
N160  N     N_3   0.125228 0.260425 0.849761 0.000000
C479  C     C_3   0.162092 0.302587 0.901019 0.000000
C480  C     C_R   0.156529 0.346885 0.905720 0.000000
N161  N     N_R   0.170070 0.375069 0.881625 0.000000
C481  C     C_R   0.160137 0.412006 0.900757 0.000000
C482  C     C_R   0.155056 0.445167 0.883863 0.000000
C483  C     C_R   0.145949 0.480715 0.910455 0.000000
C484  C     C_R   0.140782 0.481710 0.952726 0.000000
C485  C     C_R   0.139852 0.444146 0.965623 0.000000
C486  C     C_R   0.145754 0.407809 0.936284 0.000000
N162  N     N_R   0.138285 0.364402 0.937012 0.000000
H531  H     H_    0.086135 0.184440 0.831327 0.000000
H532  H     H_    0.136867 0.200718 0.817076 0.000000
H533  H     H_    0.154047 0.221805 0.883674 0.000000
H534  H     H_    0.090280 0.253029 0.849035 0.000000
H535  H     H_    0.150866 0.291295 0.926244 0.000000
H536  H     H_    0.203437 0.313818 0.914929 0.000000
H537  H     H_    0.155197 0.441799 0.849299 0.000000
H538  H     H_    0.142725 0.507813 0.898086 0.000000
H539  H     H_    0.134416 0.510026 0.973698 0.000000
H540  H     H_    0.132458 0.442040 0.996193 0.000000
C487  C     C_3   0.064217 0.385292 0.738273 0.000000
N163  N     N_3   0.074558 0.345263 0.719407 0.000000
C488  C     C_3   0.074049 0.322798 0.751781 0.000000
C489  C     C_R   0.086465 0.282364 0.738633 0.000000
N164  N     N_R   0.048676 0.231616 0.704780 0.000000
C490  C     C_R   0.076168 0.208602 0.713497 0.000000
C491  C     C_R   0.057222 0.157305 0.695514 0.000000
C492  C     C_R   0.093599 0.142107 0.702514 0.000000
C493  C     C_R   0.147015 0.178078 0.726852 0.000000
C494  C     C_R   0.164890 0.229705 0.748762 0.000000
C495  C     C_R   0.128349 0.244002 0.746366 0.000000
N165  N     N_R   0.135777 0.291329 0.766593 0.000000
H541  H     H_    0.050593 0.394344 0.707522 0.000000
H542  H     H_    0.033353 0.373282 0.748983 0.000000
H543  H     H_    0.100447 0.419355 0.771910 0.000000
H544  H     H_    0.112515 0.361698 0.725869 0.000000
H545  H     H_    0.103295 0.352838 0.791607 0.000000
H546  H     H_    0.034637 0.306575 0.746012 0.000000
H547  H     H_    0.015362 0.129554 0.673482 0.000000
H548  H     H_    0.080194 0.101949 0.686523 0.000000
H549  H     H_    0.174946 0.165734 0.729425 0.000000
H550  H     H_    0.206138 0.257532 0.766059 0.000000
C496  C     C_3   0.353602 0.526659 0.881876 0.000000
N166  N     N_3   0.342994 0.490634 0.901581 0.000000
C497  C     C_3   0.334628 0.443819 0.866136 0.000000
C498  C     C_R   0.322130 0.405388 0.883812 0.000000
N167  N     N_R   0.359003 0.394138 0.906944 0.000000
C499  C     C_R   0.328695 0.349053 0.901934 0.000000
C500  C     C_R   0.342711 0.314910 0.906424 0.000000
C501  C     C_R   0.305610 0.267722 0.895373 0.000000
C502  C     C_R   0.253481 0.253559 0.873407 0.000000
C503  C     C_R   0.239965 0.286891 0.862858 0.000000
C504  C     C_R   0.277501 0.334585 0.878569 0.000000
N168  N     N_R   0.270669 0.368914 0.865905 0.000000
H551  H     H_    0.352500 0.559814 0.904075 0.000000
H552  H     H_    0.392782 0.540765 0.885034 0.000000
H553  H     H_    0.325620 0.508089 0.840871 0.000000
H554  H     H_    0.309630 0.482486 0.905084 0.000000
H555  H     H_    0.302230 0.427954 0.827495 0.000000
H556  H     H_    0.370229 0.451964 0.863242 0.000000
H557  H     H_    0.379753 0.321960 0.910537 0.000000
H558  H     H_    0.316559 0.240298 0.898834 0.000000
H559  H     H_    0.223533 0.215294 0.860905 0.000000
H560  H     H_    0.200921 0.276668 0.841485 0.000000
C505  C     C_3   0.447432 0.603572 0.403230 0.000000
N169  N     N_3   0.502924 0.627433 0.438414 0.000000
C506  C     C_3   0.518687 0.590574 0.439653 0.000000
C507  C     C_R   0.479774 0.537698 0.396033 0.000000
N170  N     N_R   0.467079 0.522059 0.345271 0.000000
C508  C     C_R   0.439194 0.469937 0.324580 0.000000
C509  C     C_R   0.417762 0.431617 0.275542 0.000000
C510  C     C_R   0.393460 0.381309 0.265298 0.000000
C511  C     C_R   0.388631 0.369076 0.302624 0.000000
C512  C     C_R   0.409548 0.407284 0.351291 0.000000
C513  C     C_R   0.434976 0.456792 0.360975 0.000000
N171  N     N_R   0.460259 0.498516 0.406201 0.000000
H561  H     H_    0.439707 0.587956 0.363851 0.000000
H562  H     H_    0.422651 0.573731 0.408483 0.000000
H563  H     H_    0.437190 0.633118 0.409573 0.000000
H564  H     H_    0.511535 0.650256 0.475040 0.000000
H565  H     H_    0.557136 0.604007 0.441437 0.000000
H566  H     H_    0.524657 0.589217 0.475409 0.000000
H567  H     H_    0.420450 0.439314 0.245294 0.000000
H568  H     H_    0.377250 0.351110 0.227349 0.000000
H569  H     H_    0.368824 0.329574 0.293698 0.000000
H570  H     H_    0.406478 0.398492 0.380931 0.000000
C514  C     C_3   0.286096 0.398011 0.375759 0.000000
N172  N     N_3   0.301774 0.451268 0.402740 0.000000
C515  C     C_3   0.349710 0.483136 0.404776 0.000000
C516  C     C_R   0.383454 0.533088 0.452644 0.000000
N173  N     N_R   0.372213 0.571541 0.462831 0.000000
C517  C     C_R   0.419197 0.611705 0.503014 0.000000
C518  C     C_R   0.432352 0.661003 0.527650 0.000000
C519  C     C_R   0.483700 0.697665 0.566003 0.000000
C520  C     C_R   0.521076 0.684070 0.579046 0.000000
C521  C     C_R   0.507522 0.634138 0.553201 0.000000
C522  C     C_R   0.455756 0.598133 0.516356 0.000000
N174  N     N_R   0.434425 0.548285 0.485385 0.000000
H571  H     H_    0.248542 0.373276 0.372845 0.000000
H572  H     H_    0.280397 0.388197 0.336675 0.000000
H573  H     H_    0.316073 0.390592 0.396119 0.000000
H574  H     H_    0.306649 0.461324 0.439265 0.000000
H575  H     H_    0.372157 0.463813 0.404577 0.000000
H576  H     H_    0.340223 0.489046 0.370827 0.000000
H577  H     H_    0.402288 0.669873 0.518261 0.000000
H578  H     H_    0.494435 0.736790 0.586346 0.000000
H579  H     H_    0.561098 0.712610 0.609348 0.000000
H580  H     H_    0.537783 0.625218 0.560601 0.000000
C523  C     C_3   0.598152 0.457029 0.555517 0.000000
N175  N     N_3   0.550326 0.447833 0.516570 0.000000
C524  C     C_3   0.514416 0.439683 0.535426 0.000000
C525  C     C_R   0.459709 0.413876 0.495914 0.000000
N176  N     N_R   0.438760 0.442365 0.483854 0.000000
C526  C     C_R   0.395269 0.423642 0.488022 0.000000
C527  C     C_R   0.371476 0.449285 0.501535 0.000000
C528  C     C_R   0.331384 0.426407 0.510829 0.000000
C529  C     C_R   0.319608 0.381084 0.512008 0.000000
C530  C     C_R   0.349494 0.359960 0.505858 0.000000
C531  C     C_R   0.386752 0.381586 0.493813 0.000000
N177  N     N_R   0.426489 0.373505 0.498044 0.000000
H581  H     H_    0.631705 0.485292 0.556835 0.000000
H582  H     H_    0.601719 0.471964 0.593873 0.000000
H583  H     H_    0.599403 0.422046 0.545304 0.000000
H584  H     H_    0.534471 0.414262 0.484170 0.000000
H585  H     H_    0.514792 0.412703 0.548783 0.000000
H586  H     H_    0.525286 0.475168 0.566802 0.000000
H587  H     H_    0.385034 0.487403 0.507744 0.000000
H588  H     H_    0.310612 0.445058 0.519199 0.000000
H589  H     H_    0.289519 0.364166 0.521089 0.000000
H590  H     H_    0.344579 0.327661 0.510695 0.000000
C532  C     C_3   0.568884 0.504709 0.385757 0.000000
N178  N     N_3   0.600059 0.529558 0.440703 0.000000
C533  C     C_3   0.570984 0.501970 0.459555 0.000000
C534  C     C_R   0.584285 0.537911 0.510162 0.000000
N179  N     N_R   0.632397 0.560109 0.552199 0.000000
C535  C     C_R   0.623207 0.576900 0.591484 0.000000
C536  C     C_R   0.656125 0.601479 0.643776 0.000000
C537  C     C_R   0.635457 0.610499 0.675644 0.000000
C538  C     C_R   0.582462 0.594519 0.655561 0.000000
C539  C     C_R   0.550020 0.571087 0.603280 0.000000
C540  C     C_R   0.572091 0.564700 0.572632 0.000000
N180  N     N_R   0.546826 0.541169 0.521351 0.000000
H591  H     H_    0.550413 0.525699 0.376994 0.000000
H592  H     H_    0.594895 0.506586 0.369119 0.000000
H593  H     H_    0.536829 0.465072 0.368830 0.000000
H594  H     H_    0.602763 0.564595 0.454250 0.000000
H595  H     H_    0.528307 0.480460 0.434199 0.000000
H596  H     H_    0.582832 0.474987 0.463607 0.000000
H597  H     H_    0.697489 0.616376 0.660879 0.000000
H598  H     H_    0.660954 0.629987 0.716717 0.000000
H599  H     H_    0.566632 0.600775 0.680879 0.000000
H600  H     H_    0.508480 0.557904 0.586937 0.000000
C541  C     C_3   0.586736 0.175797 0.775692 0.000000
N181  N     N_3   0.546865 0.175369 0.789676 0.000000
C542  C     C_3   0.497329 0.128258 0.751401 0.000000
C543  C     C_R   0.453214 0.125222 0.759677 0.000000
N182  N     N_R   0.432995 0.093086 0.777415 0.000000
C544  C     C_R   0.388371 0.093178 0.770914 0.000000
C545  C     C_R   0.350699 0.067092 0.781277 0.000000
C546  C     C_R   0.311843 0.078386 0.777892 0.000000
C547  C     C_R   0.313169 0.117540 0.767713 0.000000
C548  C     C_R   0.351453 0.143177 0.757773 0.000000
C549  C     C_R   0.385090 0.126927 0.754241 0.000000
N183  N     N_R   0.424447 0.146937 0.744585 0.000000
H601  H     H_    0.621456 0.184337 0.808250 0.000000
H602  H     H_    0.571316 0.138674 0.742913 0.000000
H603  H     H_    0.601409 0.207167 0.767160 0.000000
H604  H     H_    0.542897 0.205877 0.789692 0.000000
H605  H     H_    0.487054 0.120106 0.711708 0.000000
H606  H     H_    0.501440 0.098397 0.757652 0.000000
H607  H     H_    0.352486 0.041199 0.795464 0.000000
H608  H     H_    0.282925 0.059385 0.787301 0.000000
H609  H     H_    0.286078 0.129892 0.770244 0.000000
H610  H     H_    0.358681 0.178619 0.758669 0.000000
C550  C     C_3   0.488613 0.925574 0.809287 0.000000
N184  N     N_3   0.462851 0.946356 0.831683 0.000000
C551  C     C_3   0.500746 0.999521 0.868797 0.000000
C552  C     C_R   0.473849 0.023364 0.887176 0.000000
N185  N     N_R   0.458693 0.050044 0.865680 0.000000
C553  C     C_R   0.439074 0.068347 0.893191 0.000000
C554  C     C_R   0.424275 0.103179 0.892506 0.000000
C555  C     C_R   0.401947 0.114727 0.921782 0.000000
C556  C     C_R   0.395819 0.091814 0.951759 0.000000
C557  C     C_R   0.414380 0.059394 0.954442 0.000000
C558  C     C_R   0.438069 0.049597 0.926339 0.000000
N186  N     N_R   0.461711 0.021847 0.925266 0.000000
H611  H     H_    0.466010 0.883929 0.792143 0.000000
H612  H     H_    0.490481 0.935978 0.779317 0.000000
H613  H     H_    0.528705 0.939884 0.839020 0.000000
H614  H     H_    0.449967 0.927478 0.850450 0.000000
H615  H     H_    0.533839 0.004912 0.900653 0.000000
H616  H     H_    0.516902 0.018627 0.849407 0.000000
H617  H     H_    0.431845 0.122550 0.871264 0.000000
H618  H     H_    0.389688 0.141942 0.921582 0.000000
H619  H     H_    0.378457 0.100927 0.974826 0.000000
H620  H     H_    0.413053 0.044882 0.980473 0.000000
C559  C     C_3   0.326009 0.951885 0.811676 0.000000
N187  N     N_3   0.365667 0.948738 0.800170 0.000000
C560  C     C_3   0.353877 0.946848 0.751281 0.000000
C561  C     C_R   0.391338 0.940795 0.737047 0.000000
N188  N     N_R   0.432902 0.984107 0.746715 0.000000
C562  C     C_R   0.439542 0.966995 0.706152 0.000000
C563  C     C_R   0.469593 0.994902 0.690175 0.000000
C564  C     C_R   0.472900 0.970205 0.648692 0.000000
C565  C     C_R   0.440209 0.918436 0.618892 0.000000
C566  C     C_R   0.403602 0.892480 0.630197 0.000000
C567  C     C_R   0.406356 0.915582 0.676392 0.000000
N189  N     N_R   0.375132 0.896599 0.695465 0.000000
H621  H     H_    0.315727 0.925325 0.826709 0.000000
H622  H     H_    0.341330 0.990695 0.840903 0.000000
H623  H     H_    0.291339 0.941980 0.777316 0.000000
H624  H     H_    0.361865 0.914135 0.796156 0.000000
H625  H     H_    0.314491 0.916072 0.720567 0.000000
H626  H     H_    0.358139 0.982655 0.753155 0.000000
H627  H     H_    0.493275 0.035119 0.710077 0.000000
H628  H     H_    0.498511 0.991776 0.637727 0.000000
H629  H     H_    0.438131 0.899443 0.582949 0.000000
H630  H     H_    0.369516 0.858292 0.598790 0.000000
C568  C     C_3   0.537488 0.205769 0.964007 0.000000
N190  N     N_3   0.534625 0.176837 0.916748 0.000000
C569  C     C_3   0.571734 0.160215 0.929646 0.000000
C570  C     C_R   0.583411 0.144676 0.887548 0.000000
N191  N     N_R   0.547660 0.100765 0.841397 0.000000
C571  C     C_R   0.578655 0.093108 0.823161 0.000000
C572  C     C_R   0.567657 0.047851 0.788244 0.000000
C573  C     C_R   0.604734 0.046338 0.774924 0.000000
C574  C     C_R   0.654170 0.089358 0.800563 0.000000
C575  C     C_R   0.667224 0.131983 0.841784 0.000000
C576  C     C_R   0.629132 0.133020 0.853640 0.000000
N192  N     N_R   0.634276 0.165963 0.896493 0.000000
H631  H     H_    0.505459 0.214060 0.954750 0.000000
H632  H     H_    0.532605 0.183156 0.984354 0.000000
H633  H     H_    0.575922 0.242176 0.989154 0.000000
H634  H     H_    0.546364 0.201013 0.901927 0.000000
H635  H     H_    0.608726 0.191233 0.965344 0.000000
H636  H     H_    0.555385 0.127721 0.936585 0.000000
H637  H     H_    0.533568 0.013049 0.776156 0.000000
H638  H     H_    0.596128 0.010907 0.746706 0.000000
H639  H     H_    0.684034 0.088240 0.791379 0.000000
H640  H     H_    0.706688 0.162479 0.863524 0.000000
C577  C     C_3   0.297460 0.402702 0.194544 0.000000
N193  N     N_3   0.302881 0.450731 0.224175 0.000000
C578  C     C_3   0.357892 0.490611 0.256751 0.000000
C579  C     C_R   0.369774 0.540390 0.259042 0.000000
N194  N     N_R   0.333474 0.552446 0.236987 0.000000
C580  C     C_R   0.364312 0.597641 0.241678 0.000000
C581  C     C_R   0.349480 0.626533 0.223688 0.000000
C582  C     C_R   0.387940 0.671833 0.232295 0.000000
C583  C     C_R   0.440553 0.687636 0.259168 0.000000
C584  C     C_R   0.454721 0.657963 0.277017 0.000000
C585  C     C_R   0.415998 0.612919 0.267732 0.000000
N195  N     N_R   0.421108 0.577429 0.279638 0.000000
H641  H     H_    0.322429 0.407196 0.176489 0.000000
H642  H     H_    0.307085 0.386189 0.219736 0.000000
H643  H     H_    0.255792 0.375439 0.163769 0.000000
H644  H     H_    0.293215 0.443854 0.250681 0.000000
H645  H     H_    0.369912 0.496025 0.295984 0.000000
H646  H     H_    0.381482 0.480985 0.241526 0.000000
H647  H     H_    0.309981 0.617505 0.208507 0.000000
H648  H     H_    0.376971 0.695874 0.219718 0.000000
H649  H     H_    0.470661 0.723663 0.266962 0.000000
H650  H     H_    0.495097 0.670168 0.297823 0.000000
C586  C     C_3   0.085381 0.417698 0.143140 0.000000
N196  N     N_3   0.133182 0.423481 0.144251 0.000000
C587  C     C_3   0.135758 0.430145 0.101710 0.000000
C588  C     C_R   0.175692 0.419932 0.096495 0.000000
N197  N     N_R   0.226634 0.451540 0.136053 0.000000
C589  C     C_R   0.253109 0.438221 0.113934 0.000000
C590  C     C_R   0.306296 0.463693 0.130446 0.000000
C591  C     C_R   0.324745 0.442908 0.101191 0.000000
C592  C     C_R   0.289990 0.398746 0.054735 0.000000
C593  C     C_R   0.236545 0.376464 0.036487 0.000000
C594  C     C_R   0.218775 0.397104 0.066039 0.000000
N198  N     N_R   0.168575 0.384152 0.052651 0.000000
H651  H     H_    0.078380 0.400828 0.167556 0.000000
H652  H     H_    0.089556 0.454900 0.158146 0.000000
H653  H     H_    0.052167 0.393655 0.103907 0.000000
H654  H     H_    0.129166 0.388586 0.137538 0.000000
H655  H     H_    0.098651 0.406054 0.066538 0.000000
H656  H     H_    0.148024 0.469502 0.109659 0.000000
H657  H     H_    0.333771 0.499589 0.164014 0.000000
H658  H     H_    0.366537 0.461523 0.114481 0.000000
H659  H     H_    0.304556 0.382542 0.031947 0.000000
H660  H     H_    0.210049 0.342998 0.000740 0.000000
C595  C     C_3   0.117125 0.477411 0.277124 0.000000
N199  N     N_3   0.119990 0.508578 0.251897 0.000000
C596  C     C_3   0.168580 0.523036 0.251102 0.000000
C597  C     C_R   0.172698 0.543673 0.215667 0.000000
N200  N     N_R   0.208361 0.544536 0.198913 0.000000
C598  C     C_R   0.202507 0.568694 0.171237 0.000000
C599  C     C_R   0.221025 0.572950 0.138071 0.000000
C600  C     C_R   0.215471 0.604894 0.118551 0.000000
C601  C     C_R   0.191908 0.631326 0.132629 0.000000
C602  C     C_R   0.168363 0.621517 0.161352 0.000000
C603  C     C_R   0.168919 0.584984 0.175037 0.000000
N201  N     N_R   0.144567 0.565248 0.198524 0.000000
H661  H     H_    0.103567 0.488094 0.304527 0.000000
H662  H     H_    0.090223 0.436424 0.248552 0.000000
H663  H     H_    0.156344 0.484377 0.299055 0.000000
H664  H     H_    0.124629 0.541503 0.276424 0.000000
H665  H     H_    0.201906 0.551472 0.290160 0.000000
H666  H     H_    0.169066 0.488200 0.236173 0.000000
H667  H     H_    0.241171 0.553696 0.129135 0.000000
H668  H     H_    0.231573 0.611006 0.094099 0.000000
H669  H     H_    0.190235 0.658389 0.119560 0.000000
H670  H     H_    0.149552 0.641589 0.171791 0.000000
C604  C     C_3   0.354568 0.664120 0.333924 0.000000
N202  N     N_3   0.309739 0.613235 0.312202 0.000000
C605  C     C_3   0.326349 0.586051 0.336662 0.000000
C606  C     C_R   0.281114 0.535281 0.317845 0.000000
N203  N     N_R   0.267872 0.519482 0.350031 0.000000
C607  C     C_R   0.233465 0.468326 0.317997 0.000000
C608  C     C_R   0.207592 0.430239 0.327557 0.000000
C609  C     C_R   0.174551 0.380494 0.287891 0.000000
C610  C     C_R   0.169381 0.368495 0.239857 0.000000
C611  C     C_R   0.195925 0.406572 0.230810 0.000000
C612  C     C_R   0.226092 0.455902 0.269753 0.000000
N204  N     N_R   0.254415 0.497698 0.267864 0.000000
H671  H     H_    0.353836 0.674965 0.304107 0.000000
H672  H     H_    0.350717 0.692621 0.359156 0.000000
H673  H     H_    0.392433 0.666666 0.354028 0.000000
H674  H     H_    0.282723 0.617849 0.321814 0.000000
H675  H     H_    0.355743 0.581004 0.328873 0.000000
H676  H     H_    0.345839 0.607045 0.378167 0.000000
H677  H     H_    0.213647 0.437356 0.365165 0.000000
H678  H     H_    0.154461 0.350399 0.295138 0.000000
H679  H     H_    0.145775 0.329193 0.209899 0.000000
H680  H     H_    0.196279 0.397675 0.195400 0.000000
C613  C     C_3   0.950628 0.450919 0.488192 0.000000
N205  N     N_3   0.953403 0.452037 0.535455 0.000000
C614  C     C_3   0.007096 0.469197 0.571392 0.000000
C615  C     C_R   0.012006 0.478521 0.621751 0.000000
N206  N     N_R   0.032982 0.526869 0.660613 0.000000
C616  C     C_R   0.024545 0.516100 0.695985 0.000000
C617  C     C_R   0.040884 0.550380 0.743934 0.000000
C618  C     C_R   0.034937 0.533290 0.778056 0.000000
C619  C     C_R   0.014220 0.482029 0.763420 0.000000
C620  C     C_R   0.999691 0.448160 0.714934 0.000000
C621  C     C_R   0.003016 0.465315 0.680823 0.000000
N207  N     N_R   0.995312 0.439503 0.633799 0.000000
H681  H     H_    0.954546 0.486666 0.488780 0.000000
H682  H     H_    0.982564 0.446805 0.483733 0.000000
H683  H     H_    0.911703 0.418662 0.455244 0.000000
H684  H     H_    0.928205 0.415552 0.527804 0.000000
H685  H     H_    0.017584 0.440693 0.559794 0.000000
H686  H     H_    0.034639 0.504309 0.574462 0.000000
H687  H     H_    0.062435 0.589769 0.754920 0.000000
H688  H     H_    0.049483 0.559989 0.817110 0.000000
H689  H     H_    0.012326 0.468935 0.790879 0.000000
H690  H     H_    0.989912 0.410383 0.705846 0.000000
C622  C     C_3   0.130887 0.501082 0.743060 0.000000
N208  N     N_3   0.097086 0.463025 0.689238 0.000000
C623  C     C_3   0.122253 0.435088 0.679635 0.000000
C624  C     C_R   0.094788 0.393133 0.627258 0.000000
N209  N     N_R   0.041722 0.365553 0.591173 0.000000
C625  C     C_R   0.041252 0.335793 0.549589 0.000000
C626  C     C_R   0.999269 0.296002 0.502579 0.000000
C627  C     C_R   0.009096 0.276086 0.464100 0.000000
C628  C     C_R   0.060293 0.294624 0.473167 0.000000
C629  C     C_R   0.102162 0.330912 0.521855 0.000000
C630  C     C_R   0.091249 0.347817 0.560259 0.000000
N210  N     N_R   0.125420 0.380930 0.610358 0.000000
H691  H     H_    0.108348 0.513190 0.758266 0.000000
H692  H     H_    0.147154 0.486047 0.766785 0.000000
H693  H     H_    0.163873 0.533635 0.747090 0.000000
H694  H     H_    0.100422 0.483548 0.669386 0.000000
H695  H     H_    0.160634 0.462044 0.686185 0.000000
H696  H     H_    0.127712 0.419068 0.705055 0.000000
H697  H     H_    0.959499 0.279157 0.495311 0.000000
H698  H     H_    0.976405 0.246595 0.426376 0.000000
H699  H     H_    0.067482 0.279931 0.442364 0.000000
H700  H     H_    0.142255 0.345832 0.529278 0.000000
C631  C     C_3   0.784176 0.260681 0.574969 0.000000
N211  N     N_3   0.826013 0.261556 0.564325 0.000000
C632  C     C_3   0.844612 0.303409 0.553565 0.000000
C633  C     C_R   0.860282 0.292205 0.514197 0.000000
N212  N     N_R   0.910750 0.323173 0.525928 0.000000
C634  C     C_R   0.904181 0.318892 0.479838 0.000000
C635  C     C_R   0.940761 0.343519 0.468312 0.000000
C636  C     C_R   0.925756 0.333838 0.418450 0.000000
C637  C     C_R   0.873641 0.300285 0.380705 0.000000
C638  C     C_R   0.837004 0.275988 0.392922 0.000000
C639  C     C_R   0.853248 0.285486 0.442608 0.000000
N213  N     N_R   0.824126 0.267232 0.462838 0.000000
H701  H     H_    0.772246 0.232815 0.588661 0.000000
H702  H     H_    0.798211 0.298932 0.605033 0.000000
H703  H     H_    0.749530 0.249761 0.539850 0.000000
H704  H     H_    0.810109 0.227733 0.531754 0.000000
H705  H     H_    0.813935 0.312615 0.541451 0.000000
H706  H     H_    0.879416 0.338180 0.587848 0.000000
H707  H     H_    0.980353 0.368835 0.497184 0.000000
H708  H     H_    0.954791 0.352634 0.409064 0.000000
H709  H     H_    0.861752 0.292035 0.341437 0.000000
H710  H     H_    0.797952 0.247063 0.362929 0.000000
C640  C     C_3   0.028762 0.229345 0.559675 0.000000
N214  N     N_3   0.010362 0.233779 0.596581 0.000000
C641  C     C_3   0.000220 0.274426 0.602053 0.000000
C642  C     C_R   0.971151 0.280159 0.629443 0.000000
N215  N     N_R   0.955378 0.251759 0.652293 0.000000
C643  C     C_R   0.928846 0.270031 0.669346 0.000000
C644  C     C_R   0.900308 0.251691 0.691097 0.000000
C645  C     C_R   0.876128 0.276052 0.706820 0.000000
C646  C     C_R   0.879463 0.316942 0.699098 0.000000
C647  C     C_R   0.905522 0.332969 0.674213 0.000000
C648  C     C_R   0.930619 0.308996 0.659199 0.000000
N216  N     N_R   0.957677 0.316735 0.633397 0.000000
H711  H     H_    0.047530 0.206669 0.560302 0.000000
H712  H     H_    0.995460 0.211440 0.520470 0.000000
H713  H     H_    0.059931 0.267087 0.570634 0.000000
H714  H     H_    0.042234 0.246633 0.631344 0.000000
H715  H     H_    0.038825 0.309491 0.624694 0.000000
H716  H     H_    0.975624 0.267465 0.563760 0.000000
H717  H     H_    0.895575 0.218281 0.694821 0.000000
H718  H     H_    0.853906 0.262708 0.724535 0.000000
H719  H     H_    0.859880 0.335473 0.711031 0.000000
H720  H     H_    0.904750 0.363351 0.667061 0.000000
C649  C     C_3   0.181404 0.028111 0.103382 0.000000
N217  N     N_3   0.189046 0.987572 0.078824 0.000000
C650  C     C_3   0.144189 0.939319 0.062930 0.000000
C651  C     C_R   0.155789 0.897759 0.052570 0.000000
N218  N     N_R   0.174355 0.885856 0.090547 0.000000
C652  C     C_R   0.170667 0.842091 0.065196 0.000000
C653  C     C_R   0.179105 0.811166 0.084245 0.000000
C654  C     C_R   0.166415 0.764093 0.050750 0.000000
C655  C     C_R   0.143023 0.748235 0.999019 0.000000
C656  C     C_R   0.135764 0.780752 0.980798 0.000000
C657  C     C_R   0.150130 0.827820 0.014416 0.000000
N219  N     N_R   0.139515 0.861911 0.003969 0.000000
H721  H     H_    0.211063 0.064575 0.109307 0.000000
H722  H     H_    0.141255 0.019143 0.079198 0.000000
H723  H     H_    0.187072 0.032586 0.141167 0.000000
H724  H     H_    0.221725 0.992703 0.107299 0.000000
H725  H     H_    0.133838 0.943879 0.092949 0.000000
H726  H     H_    0.109123 0.928344 0.029438 0.000000
H727  H     H_    0.187929 0.819528 0.122491 0.000000
H728  H     H_    0.170035 0.737870 0.064380 0.000000
H729  H     H_    0.128370 0.709213 0.973137 0.000000
H730  H     H_    0.115171 0.768497 0.940947 0.000000
C658  C     C_3   0.064166 0.763342 0.063483 0.000000
N220  N     N_3   0.075235 0.807048 0.106662 0.000000
C659  C     C_3   0.064680 0.841056 0.089356 0.000000
C660  C     C_R   0.083480 0.889746 0.133380 0.000000
N221  N     N_R   0.048309 0.901064 0.142132 0.000000
C661  C     C_R   0.079702 0.950781 0.178416 0.000000
C662  C     C_R   0.067090 0.981430 0.205811 0.000000
C663  C     C_R   0.104558 0.032886 0.236896 0.000000
C664  C     C_R   0.153359 0.052538 0.239808 0.000000
C665  C     C_R   0.166963 0.020375 0.215608 0.000000
C666  C     C_R   0.130068 0.968964 0.187086 0.000000
N222  N     N_R   0.134901 0.930313 0.161919 0.000000
H731  H     H_    0.090671 0.749991 0.077425 0.000000
H732  H     H_    0.024428 0.730977 0.045881 0.000000
H733  H     H_    0.067919 0.772315 0.033330 0.000000
H734  H     H_    0.115342 0.826920 0.133008 0.000000
H735  H     H_    0.081719 0.848405 0.065622 0.000000
H736  H     H_    0.022476 0.823794 0.064526 0.000000
H737  H     H_    0.030639 0.965768 0.205942 0.000000
H738  H     H_    0.095441 0.058044 0.258380 0.000000
H739  H     H_    0.181553 0.093106 0.262189 0.000000
H740  H     H_    0.205105 0.036120 0.218348 0.000000
C667  C     C_3   0.116102 0.929857 0.290549 0.000000
N223  N     N_3   0.128364 0.891076 0.271113 0.000000
C668  C     C_3   0.174107 0.918172 0.268097 0.000000
C669  C     C_R   0.196805 0.888659 0.249374 0.000000
N224  N     N_R   0.222873 0.873822 0.280116 0.000000
C670  C     C_R   0.253012 0.865536 0.260525 0.000000
C671  C     C_R   0.285980 0.847914 0.274939 0.000000
C672  C     C_R   0.313480 0.843095 0.249355 0.000000
C673  C     C_R   0.310085 0.858673 0.212444 0.000000
C674  C     C_R   0.278264 0.878171 0.199905 0.000000
C675  C     C_R   0.246891 0.877194 0.221651 0.000000
N225  N     N_R   0.210860 0.891246 0.212579 0.000000
H741  H     H_    0.089118 0.917612 0.304860 0.000000
H742  H     H_    0.151810 0.966359 0.322313 0.000000
H743  H     H_    0.098717 0.938487 0.260622 0.000000
H744  H     H_    0.098222 0.864262 0.233571 0.000000
H745  H     H_    0.163857 0.934607 0.244086 0.000000
H746  H     H_    0.205273 0.948262 0.306920 0.000000
H747  H     H_    0.288596 0.835693 0.303409 0.000000
H748  H     H_    0.338670 0.828056 0.258924 0.000000
H749  H     H_    0.332781 0.855873 0.193619 0.000000
H750  H     H_    0.276426 0.891434 0.172096 0.000000
C676  C     C_3   0.259594 0.040912 0.318686 0.000000
N226  N     N_3   0.256592 0.999234 0.281281 0.000000
C677  C     C_3   0.307123 0.009908 0.286921 0.000000
C678  C     C_R   0.311584 0.020475 0.246022 0.000000
N227  N     N_R   0.273866 0.986020 0.195527 0.000000
C679  C     C_R   0.301365 0.996779 0.171225 0.000000
C680  C     C_R   0.291284 0.966051 0.123458 0.000000
C681  C     C_R   0.328272 0.982646 0.108767 0.000000
C682  C     C_R   0.374762 0.029308 0.141343 0.000000
C683  C     C_R   0.385855 0.057579 0.190158 0.000000
C684  C     C_R   0.349940 0.039239 0.204895 0.000000
N228  N     N_R   0.358880 0.054515 0.253107 0.000000
H751  H     H_    0.220116 0.028754 0.314863 0.000000
H752  H     H_    0.286599 0.050325 0.357451 0.000000
H753  H     H_    0.270349 0.073356 0.311041 0.000000
H754  H     H_    0.232944 0.992549 0.245476 0.000000
H755  H     H_    0.337506 0.040829 0.324166 0.000000
H756  H     H_    0.311128 0.976665 0.283703 0.000000
H757  H     H_    0.258000 0.928501 0.098452 0.000000
H758  H     H_    0.321190 0.958211 0.072055 0.000000
H759  H     H_    0.403724 0.042318 0.129834 0.000000
H760  H     H_    0.422200 0.092800 0.216487 0.000000
C685  C     C_3   0.822913 0.648998 0.013457 0.000000
N229  N     N_3   0.831881 0.661414 0.065029 0.000000
C686  C     C_3   0.849032 0.629780 0.080817 0.000000
C687  C     C_R   0.862643 0.644128 0.133711 0.000000
N230  N     N_R   0.913555 0.664142 0.170016 0.000000
C688  C     C_R   0.908874 0.664865 0.210856 0.000000
C689  C     C_R   0.947949 0.679884 0.257930 0.000000
C690  C     C_R   0.936385 0.683615 0.296920 0.000000
C691  C     C_R   0.887630 0.676373 0.288839 0.000000
C692  C     C_R   0.848823 0.660721 0.240655 0.000000
C693  C     C_R   0.858292 0.649798 0.200395 0.000000
N231  N     N_R   0.826508 0.634199 0.150338 0.000000
H761  H     H_    0.848845 0.682817 0.013508 0.000000
H762  H     H_    0.828958 0.617460 0.998081 0.000000
H763  H     H_    0.782649 0.637846 0.987506 0.000000
H764  H     H_    0.795931 0.651586 0.063519 0.000000
H765  H     H_    0.820015 0.589145 0.058021 0.000000
H766  H     H_    0.884588 0.635027 0.079572 0.000000
H767  H     H_    0.986109 0.687031 0.263770 0.000000
H768  H     H_    0.966444 0.695410 0.334521 0.000000
H769  H     H_    0.880145 0.683847 0.320551 0.000000
H770  H     H_    0.813691 0.660633 0.236158 0.000000
C694  C     C_3   0.978052 0.870979 0.227684 0.000000
N232  N     N_3   0.986753 0.848301 0.186736 0.000000
C695  C     C_3   0.978441 0.799295 0.180445 0.000000
C696  C     C_R   0.969136 0.768572 0.129201 0.000000
N233  N     N_R   0.960161 0.782069 0.091109 0.000000
C697  C     C_R   0.946899 0.740099 0.050549 0.000000
C698  C     C_R   0.935637 0.732098 0.001955 0.000000
C699  C     C_R   0.916895 0.683797 0.964540 0.000000
C700  C     C_R   0.912412 0.645235 0.976768 0.000000
C701  C     C_R   0.927331 0.654822 0.026601 0.000000
C702  C     C_R   0.946515 0.703343 0.063558 0.000000
N234  N     N_R   0.962819 0.721073 0.113999 0.000000
H771  H     H_    0.988702 0.910527 0.236080 0.000000
H772  H     H_    0.936279 0.847988 0.215573 0.000000
H773  H     H_    0.001518 0.871388 0.262383 0.000000
H774  H     H_    0.025965 0.870660 0.198301 0.000000
H775  H     H_    0.013776 0.805575 0.210363 0.000000
H776  H     H_    0.943934 0.778578 0.183785 0.000000
H777  H     H_    0.941837 0.762880 0.993512 0.000000
H778  H     H_    0.904980 0.675504 0.925327 0.000000
H779  H     H_    0.897178 0.607470 0.947249 0.000000
H780  H     H_    0.922788 0.624046 0.035306 0.000000
C703  C     C_3   0.010809 0.821716 0.344047 0.000000
N235  N     N_3   0.025741 0.817693 0.304642 0.000000
C704  C     C_3   0.061495 0.799565 0.314379 0.000000
C705  C     C_R   0.079792 0.790978 0.276420 0.000000
N236  N     N_R   0.048592 0.752320 0.225621 0.000000
C706  C     C_R   0.085545 0.753984 0.212853 0.000000
C707  C     C_R   0.080533 0.734418 0.165775 0.000000
C708  C     C_R   0.122102 0.731293 0.162449 0.000000
C709  C     C_R   0.165867 0.746437 0.206453 0.000000
C710  C     C_R   0.171990 0.774076 0.253132 0.000000
C711  C     C_R   0.133448 0.784559 0.253087 0.000000
N237  N     N_R   0.133137 0.814537 0.292771 0.000000
H781  H     H_    0.005074 0.854364 0.353992 0.000000
H782  H     H_    0.973929 0.786307 0.329933 0.000000
H783  H     H_    0.042042 0.828690 0.379494 0.000000
H784  H     H_    0.049272 0.855051 0.313908 0.000000
H785  H     H_    0.096713 0.828837 0.351737 0.000000
H786  H     H_    0.042887 0.764628 0.316150 0.000000
H787  H     H_    0.045906 0.723390 0.133151 0.000000
H788  H     H_    0.119508 0.714400 0.125842 0.000000
H789  H     H_    0.196815 0.740388 0.204336 0.000000
H790  H     H_    0.207050 0.788789 0.287873 0.000000
C712  C     C_3   0.906713 0.537388 0.184008 0.000000
N238  N     N_3   0.952477 0.548507 0.177316 0.000000
C713  C     C_3   0.984548 0.603478 0.199167 0.000000
C714  C     C_R   0.012661 0.614698 0.171509 0.000000
N239  N     N_R   0.039173 0.590889 0.160905 0.000000
C715  C     C_R   0.037937 0.593802 0.118998 0.000000
C716  C     C_R   0.056807 0.574169 0.090927 0.000000
C717  C     C_R   0.055691 0.582641 0.050480 0.000000
C718  C     C_R   0.035990 0.611950 0.039541 0.000000
C719  C     C_R   0.016719 0.631629 0.068301 0.000000
C720  C     C_R   0.015619 0.620577 0.107219 0.000000
N240  N     N_R   0.000051 0.636275 0.141297 0.000000
H791  H     H_    0.919214 0.563262 0.223874 0.000000
H792  H     H_    0.878586 0.542225 0.156637 0.000000
H793  H     H_    0.886834 0.497363 0.176406 0.000000
H794  H     H_    0.938450 0.532072 0.137899 0.000000
H795  H     H_    0.957964 0.617659 0.191581 0.000000
H796  H     H_    0.012351 0.622687 0.240591 0.000000
H797  H     H_    0.073698 0.553956 0.102565 0.000000
H798  H     H_    0.072120 0.568384 0.028807 0.000000
H799  H     H_    0.037630 0.621387 0.009803 0.000000
H800  H     H_    0.008686 0.658936 0.062224 0.000000
C721  C     C_3   0.525455 0.396849 0.788524 0.000000
N241  N     N_3   0.492817 0.345572 0.778100 0.000000
C722  C     C_3   0.459419 0.312810 0.723229 0.000000
C723  C     C_R   0.406385 0.278444 0.712013 0.000000
N242  N     N_R   0.390158 0.230265 0.706612 0.000000
C724  C     C_R   0.338081 0.210856 0.689970 0.000000
C725  C     C_R   0.299797 0.162221 0.674429 0.000000
C726  C     C_R   0.249939 0.152635 0.664554 0.000000
C727  C     C_R   0.238512 0.190816 0.668366 0.000000
C728  C     C_R   0.276281 0.238445 0.680506 0.000000
C729  C     C_R   0.325400 0.247056 0.689140 0.000000
N243  N     N_R   0.367886 0.290417 0.701802 0.000000
H801  H     H_    0.559899 0.418739 0.827268 0.000000
H802  H     H_    0.539313 0.396982 0.760464 0.000000
H803  H     H_    0.502688 0.415296 0.789145 0.000000
H804  H     H_    0.468361 0.346859 0.793243 0.000000
H805  H     H_    0.457710 0.335489 0.703952 0.000000
H806  H     H_    0.473931 0.289325 0.707461 0.000000
H807  H     H_    0.307640 0.131670 0.668435 0.000000
H808  H     H_    0.219576 0.114981 0.653200 0.000000
H809  H     H_    0.199637 0.183089 0.661072 0.000000
H810  H     H_    0.267670 0.268384 0.684813 0.000000
C730  C     C_3   0.284365 0.218087 0.518510 0.000000
N244  N     N_3   0.323971 0.271820 0.543604 0.000000
C731  C     C_3   0.368233 0.284676 0.589657 0.000000
C732  C     C_R   0.408582 0.340113 0.617122 0.000000
N245  N     N_R   0.443728 0.361004 0.601494 0.000000
C733  C     C_R   0.477041 0.409052 0.640943 0.000000
C734  C     C_R   0.522680 0.446875 0.648833 0.000000
C735  C     C_R   0.554319 0.492031 0.694294 0.000000
C736  C     C_R   0.541992 0.497561 0.732759 0.000000
C737  C     C_R   0.497265 0.458503 0.724747 0.000000
C738  C     C_R   0.463283 0.415921 0.677999 0.000000
N246  N     N_R   0.419087 0.373478 0.664356 0.000000
H811  H     H_    0.251868 0.207281 0.481640 0.000000
H812  H     H_    0.302129 0.195061 0.512564 0.000000
H813  H     H_    0.268803 0.209286 0.542763 0.000000
H814  H     H_    0.307687 0.293359 0.553803 0.000000
H815  H     H_    0.355003 0.274957 0.615106 0.000000
H816  H     H_    0.385885 0.262223 0.579823 0.000000
H817  H     H_    0.537685 0.440887 0.623732 0.000000
H818  H     H_    0.590848 0.521296 0.701201 0.000000
H819  H     H_    0.568888 0.531081 0.770067 0.000000
H820  H     H_    0.492524 0.459368 0.756032 0.000000
C739  C     C_3   0.372031 0.534523 0.777907 0.000000
N247  N     N_3   0.346783 0.488420 0.730010 0.000000
C740  C     C_3   0.327609 0.443976 0.737011 0.000000
C741  C     C_R   0.295483 0.396432 0.686753 0.000000
N248  N     N_R   0.245017 0.381076 0.652271 0.000000
C742  C     C_R   0.227740 0.334421 0.616656 0.000000
C743  C     C_R   0.177165 0.298490 0.578391 0.000000
C744  C     C_R   0.165601 0.250736 0.547703 0.000000
C745  C     C_R   0.204017 0.238535 0.559430 0.000000
C746  C     C_R   0.254377 0.274685 0.600588 0.000000
C747  C     C_R   0.265788 0.322653 0.628485 0.000000
N249  N     N_R   0.309938 0.360883 0.673114 0.000000
H821  H     H_    0.401388 0.566817 0.777822 0.000000
H822  H     H_    0.342258 0.543074 0.781929 0.000000
H823  H     H_    0.392101 0.529759 0.810423 0.000000
H824  H     H_    0.374849 0.489551 0.719161 0.000000
H825  H     H_    0.359975 0.442826 0.761710 0.000000
H826  H     H_    0.304560 0.446119 0.756200 0.000000
H827  H     H_    0.146090 0.304512 0.577638 0.000000
H828  H     H_    0.125404 0.221440 0.518164 0.000000
H829  H     H_    0.193301 0.199637 0.538094 0.000000
H830  H     H_    0.283340 0.264914 0.612346 0.000000
C748  C     C_3   0.337443 0.266342 0.804825 0.000000
N250  N     N_3   0.383294 0.315894 0.824846 0.000000
C749  C     C_3   0.365911 0.345353 0.804960 0.000000
C750  C     C_R   0.411276 0.395120 0.821585 0.000000
N251  N     N_R   0.441020 0.433727 0.871734 0.000000
C751  C     C_R   0.465314 0.475151 0.867411 0.000000
C752  C     C_R   0.498112 0.525070 0.905591 0.000000
C753  C     C_R   0.513408 0.562875 0.892274 0.000000
C754  C     C_R   0.494509 0.550272 0.841218 0.000000
C755  C     C_R   0.461678 0.499771 0.803423 0.000000
C756  C     C_R   0.450535 0.461993 0.817293 0.000000
N252  N     N_R   0.418097 0.410427 0.786738 0.000000
H831  H     H_    0.344857 0.251709 0.832065 0.000000
H832  H     H_    0.301460 0.268417 0.796759 0.000000
H833  H     H_    0.331412 0.238387 0.770299 0.000000
H834  H     H_    0.406745 0.309231 0.810384 0.000000
H835  H     H_    0.343422 0.325304 0.763419 0.000000
H836  H     H_    0.339007 0.351488 0.817203 0.000000
H837  H     H_    0.513164 0.534910 0.945307 0.000000
H838  H     H_    0.539040 0.602411 0.921721 0.000000
H839  H     H_    0.504643 0.580086 0.830733 0.000000
H840  H     H_    0.444874 0.490706 0.763856 0.000000
C757  C     C_3   0.659626 0.584816 0.345523 0.000000
N253  N     N_3   0.649722 0.625690 0.361693 0.000000
C758  C     C_3   0.613931 0.610868 0.380752 0.000000
C759  C     C_R   0.601458 0.650061 0.398359 0.000000
N254  N     N_R   0.638608 0.698724 0.437760 0.000000
C760  C     C_R   0.609864 0.721140 0.438336 0.000000
C761  C     C_R   0.627623 0.771844 0.467097 0.000000
C762  C     C_R   0.590764 0.786359 0.461457 0.000000
C763  C     C_R   0.537668 0.750802 0.426831 0.000000
C764  C     C_R   0.520775 0.700435 0.397081 0.000000
C765  C     C_R   0.557795 0.686461 0.402879 0.000000
N255  N     N_R   0.551043 0.640690 0.375949 0.000000
H841  H     H_    0.694919 0.599202 0.341693 0.000000
H842  H     H_    0.663797 0.568882 0.371940 0.000000
H843  H     H_    0.626813 0.553574 0.308728 0.000000
H844  H     H_    0.628792 0.625256 0.328043 0.000000
H845  H     H_    0.577018 0.576496 0.349551 0.000000
H846  H     H_    0.630980 0.604425 0.412632 0.000000
H847  H     H_    0.669102 0.799603 0.493506 0.000000
H848  H     H_    0.603340 0.825640 0.484213 0.000000
H849  H     H_    0.509267 0.762656 0.422535 0.000000
H850  H     H_    0.479567 0.673287 0.370703 0.000000
C766  C     C_3   0.595276 0.708480 0.331108 0.000000
N256  N     N_3   0.646683 0.715051 0.355830 0.000000
C767  C     C_3   0.684855 0.768801 0.387740 0.000000
C768  C     C_R   0.737560 0.777334 0.411483 0.000000
N257  N     N_R   0.754272 0.761616 0.446519 0.000000
C769  C     C_R   0.802198 0.772638 0.452777 0.000000
C770  C     C_R   0.836482 0.763117 0.482495 0.000000
C771  C     C_R   0.882117 0.773194 0.480539 0.000000
C772  C     C_R   0.890938 0.789681 0.446882 0.000000
C773  C     C_R   0.855535 0.798455 0.416919 0.000000
C774  C     C_R   0.812813 0.793068 0.422585 0.000000
N258  N     N_R   0.772702 0.798111 0.396317 0.000000
H851  H     H_    0.565613 0.668198 0.314708 0.000000
H852  H     H_    0.590471 0.735624 0.357353 0.000000
H853  H     H_    0.588934 0.715832 0.299392 0.000000
H854  H     H_    0.654469 0.701189 0.326916 0.000000
H855  H     H_    0.684302 0.786251 0.363083 0.000000
H856  H     H_    0.677523 0.786294 0.418045 0.000000
H857  H     H_    0.826781 0.745693 0.504797 0.000000
H858  H     H_    0.909221 0.765107 0.502838 0.000000
H859  H     H_    0.924325 0.793233 0.442072 0.000000
H860  H     H_    0.857902 0.801956 0.385395 0.000000
C775  C     C_3   0.835448 0.892398 0.575145 0.000000
N259  N     N_3   0.842152 0.849305 0.557274 0.000000
C776  C     C_3   0.847314 0.829475 0.593248 0.000000
C777  C     C_R   0.800119 0.811250 0.598250 0.000000
N260  N     N_R   0.805518 0.832415 0.645760 0.000000
C778  C     C_R   0.755198 0.818593 0.634078 0.000000
C779  C     C_R   0.736135 0.832196 0.666000 0.000000
C780  C     C_R   0.682674 0.811618 0.646367 0.000000
C781  C     C_R   0.648588 0.776533 0.595292 0.000000
C782  C     C_R   0.667908 0.763297 0.563621 0.000000
C783  C     C_R   0.721635 0.787594 0.582586 0.000000
N261  N     N_R   0.748730 0.780999 0.558036 0.000000
H861  H     H_    0.841924 0.912743 0.553047 0.000000
H862  H     H_    0.794732 0.879068 0.568315 0.000000
H863  H     H_    0.864657 0.919391 0.616328 0.000000
H864  H     H_    0.877991 0.863554 0.557613 0.000000
H865  H     H_    0.856074 0.799011 0.582597 0.000000
H866  H     H_    0.879263 0.861019 0.631635 0.000000
H867  H     H_    0.761975 0.860760 0.705438 0.000000
H868  H     H_    0.667569 0.822709 0.671135 0.000000
H869  H     H_    0.606598 0.759439 0.579722 0.000000
H870  H     H_    0.640087 0.732848 0.525794 0.000000
C784  C     C_3   0.719225 0.690402 0.627029 0.000000
N262  N     N_3   0.724558 0.705144 0.589502 0.000000
C785  C     C_3   0.682376 0.663339 0.539084 0.000000
C786  C     C_R   0.704735 0.643744 0.509941 0.000000
N263  N     N_R   0.724035 0.667205 0.485143 0.000000
C787  C     C_R   0.741075 0.637925 0.464495 0.000000
C788  C     C_R   0.765760 0.643482 0.436172 0.000000
C789  C     C_R   0.779773 0.608370 0.419187 0.000000
C790  C     C_R   0.768608 0.568200 0.430064 0.000000
C791  C     C_R   0.743123 0.562539 0.457972 0.000000
C792  C     C_R   0.729647 0.597820 0.474555 0.000000
N264  N     N_R   0.707784 0.601087 0.504655 0.000000
H871  H     H_    0.752297 0.720220 0.665464 0.000000
H872  H     H_    0.681922 0.684944 0.626002 0.000000
H873  H     H_    0.721384 0.655871 0.619004 0.000000
H874  H     H_    0.760439 0.711098 0.592368 0.000000
H875  H     H_    0.654061 0.633888 0.541913 0.000000
H876  H     H_    0.660229 0.675987 0.517053 0.000000
H877  H     H_    0.769491 0.670784 0.422735 0.000000
H878  H     H_    0.798412 0.611603 0.396125 0.000000
H879  H     H_    0.780187 0.541372 0.416919 0.000000
H880  H     H_    0.736846 0.533024 0.468825 0.000000
C793  C     C_3   0.424556 0.220942 0.871020 0.000000
N265  N     N_3   0.444893 0.247469 0.845743 0.000000
C794  C     C_3   0.495142 0.251710 0.856031 0.000000
C795  C     C_R   0.521338 0.282643 0.835667 0.000000
N266  N     N_R   0.509967 0.263882 0.785018 0.000000
C796  C     C_R   0.553031 0.300022 0.789244 0.000000
C797  C     C_R   0.565250 0.301654 0.751901 0.000000
C798  C     C_R   0.609291 0.344881 0.763985 0.000000
C799  C     C_R   0.636244 0.387863 0.811162 0.000000
C800  C     C_R   0.622505 0.385673 0.847970 0.000000
C801  C     C_R   0.584619 0.339901 0.837853 0.000000
N267  N     N_R   0.567254 0.329395 0.869012 0.000000
H881  H     H_    0.384190 0.212830 0.860769 0.000000
H882  H     H_    0.424223 0.184950 0.859752 0.000000
H883  H     H_    0.449235 0.243843 0.912598 0.000000
H884  H     H_    0.451948 0.284196 0.862930 0.000000
H885  H     H_    0.521418 0.270537 0.897923 0.000000
H886  H     H_    0.490173 0.213781 0.839499 0.000000
H887  H     H_    0.540104 0.270912 0.713945 0.000000
H888  H     H_    0.620320 0.346533 0.735359 0.000000
H889  H     H_    0.666643 0.423487 0.818498 0.000000
H890  H     H_    0.635850 0.420003 0.880538 0.000000
C802  C     C_3   0.653028 0.454951 0.128484 0.000000
N268  N     N_3   0.674128 0.488999 0.109415 0.000000
C803  C     C_3   0.636401 0.476727 0.059436 0.000000
C804  C     C_R   0.664008 0.483978 0.029972 0.000000
N269  N     N_R   0.702819 0.531396 0.042164 0.000000
C805  C     C_R   0.718600 0.517172 0.008237 0.000000
C806  C     C_R   0.734341 0.541699 0.983190 0.000000
C807  C     C_R   0.747606 0.519617 0.948594 0.000000
C808  C     C_R   0.742870 0.472796 0.939121 0.000000
C809  C     C_R   0.714399 0.444216 0.955490 0.000000
C810  C     C_R   0.696767 0.466149 0.983884 0.000000
N270  N     N_R   0.657582 0.443045 0.991674 0.000000
H891  H     H_    0.685043 0.452065 0.153134 0.000000
H892  H     H_    0.640057 0.472199 0.153449 0.000000
H893  H     H_    0.620947 0.415947 0.097514 0.000000
H894  H     H_    0.707287 0.490028 0.108625 0.000000
H895  H     H_    0.603797 0.437215 0.039287 0.000000
H896  H     H_    0.620775 0.502270 0.063231 0.000000
H897  H     H_    0.733622 0.575483 0.988988 0.000000
H898  H     H_    0.761450 0.538574 0.928794 0.000000
H899  H     H_    0.754255 0.455880 0.913121 0.000000
H900  H     H_    0.700770 0.404653 0.941630 0.000000
C811  C     C_3   0.678455 0.312341 0.859752 0.000000
N271  N     N_3   0.685220 0.304931 0.904322 0.000000
C812  C     C_3   0.634850 0.272437 0.898809 0.000000
C813  C     C_R   0.641007 0.286368 0.950199 0.000000
N272  N     N_R   0.674900 0.278838 0.983608 0.000000
C814  C     C_R   0.696386 0.320121 0.028545 0.000000
C815  C     C_R   0.745716 0.343995 0.069915 0.000000
C816  C     C_R   0.765210 0.390886 0.109751 0.000000
C817  C     C_R   0.736687 0.414740 0.105926 0.000000
C818  C     C_R   0.689716 0.392317 0.061298 0.000000
C819  C     C_R   0.671128 0.346072 0.023109 0.000000
N273  N     N_R   0.635183 0.325977 0.973886 0.000000
H901  H     H_    0.703954 0.304231 0.846040 0.000000
H902  H     H_    0.637429 0.286900 0.828043 0.000000
H903  H     H_    0.691096 0.352460 0.870286 0.000000
H904  H     H_    0.706293 0.339834 0.937493 0.000000
H905  H     H_    0.603876 0.276807 0.876434 0.000000
H906  H     H_    0.623754 0.232655 0.880264 0.000000
H907  H     H_    0.770246 0.328441 0.070309 0.000000
H908  H     H_    0.803689 0.409843 0.142978 0.000000
H909  H     H_    0.753159 0.452230 0.136608 0.000000
H910  H     H_    0.667940 0.410069 0.054241 0.000000
C820  C     C_3   0.586443 0.498716 0.925750 0.000000
N274  N     N_3   0.565474 0.471516 0.949965 0.000000
C821  C     C_3   0.537096 0.417779 0.914246 0.000000
C822  C     C_R   0.516629 0.388098 0.937684 0.000000
N275  N     N_R   0.540062 0.363464 0.954032 0.000000
C823  C     C_R   0.513826 0.343120 0.974915 0.000000
C824  C     C_R   0.525364 0.317624 0.000459 0.000000
C825  C     C_R   0.492714 0.297795 0.018396 0.000000
C826  C     C_R   0.451734 0.306521 0.012898 0.000000
C827  C     C_R   0.444128 0.336672 0.991305 0.000000
C828  C     C_R   0.474909 0.354061 0.970445 0.000000
N276  N     N_R   0.476040 0.384416 0.947431 0.000000
H911  H     H_    0.592807 0.537015 0.943206 0.000000
H912  H     H_    0.623693 0.500651 0.930710 0.000000
H913  H     H_    0.558200 0.479916 0.884488 0.000000
H914  H     H_    0.539099 0.480539 0.956867 0.000000
H915  H     H_    0.504760 0.406951 0.877891 0.000000
H916  H     H_    0.565010 0.408961 0.906018 0.000000
H917  H     H_    0.558011 0.312058 0.005007 0.000000
H918  H     H_    0.499560 0.276145 0.037367 0.000000
H919  H     H_    0.427532 0.292433 0.028706 0.000000
H920  H     H_    0.416352 0.347682 0.993952 0.000000
C829  C     C_3   0.266548 0.649982 0.750380 0.000000
N277  N     N_3   0.223086 0.652550 0.718595 0.000000
C830  C     C_3   0.179999 0.600561 0.681748 0.000000
C831  C     C_R   0.148158 0.597254 0.632921 0.000000
N278  N     N_R   0.101933 0.597294 0.621710 0.000000
C832  C     C_R   0.083498 0.588090 0.572746 0.000000
C833  C     C_R   0.040703 0.588513 0.543021 0.000000
C834  C     C_R   0.026665 0.574744 0.492384 0.000000
C835  C     C_R   0.056760 0.563030 0.473099 0.000000
C836  C     C_R   0.102728 0.567700 0.504985 0.000000
C837  C     C_R   0.115538 0.580108 0.554943 0.000000
N279  N     N_R   0.158655 0.587756 0.592914 0.000000
H921  H     H_    0.299177 0.688789 0.780956 0.000000
H922  H     H_    0.253155 0.626565 0.767969 0.000000
H923  H     H_    0.281549 0.633341 0.727156 0.000000
H924  H     H_    0.235102 0.669762 0.698311 0.000000
H925  H     H_    0.195809 0.575872 0.675128 0.000000
H926  H     H_    0.153846 0.586264 0.696461 0.000000
H927  H     H_    0.020084 0.601731 0.558871 0.000000
H928  H     H_    0.992800 0.574315 0.468053 0.000000
H929  H     H_    0.046044 0.553442 0.433738 0.000000
H930  H     H_    0.128776 0.564627 0.491253 0.000000
C838  C     C_3   0.154272 0.685010 0.537224 0.000000
N280  N     N_3   0.202596 0.684949 0.559513 0.000000
C839  C     C_3   0.220422 0.703967 0.613574 0.000000
C840  C     C_R   0.272592 0.710663 0.640737 0.000000
N281  N     N_R   0.281054 0.672135 0.643347 0.000000
C841  C     C_R   0.333222 0.698219 0.676368 0.000000
C842  C     C_R   0.362777 0.680879 0.699107 0.000000
C843  C     C_R   0.416911 0.713248 0.727830 0.000000
C844  C     C_R   0.440131 0.761044 0.731544 0.000000
C845  C     C_R   0.409273 0.779328 0.712108 0.000000
C846  C     C_R   0.355242 0.748277 0.688060 0.000000
N282  N     N_R   0.317109 0.758481 0.668917 0.000000
H931  H     H_    0.135013 0.664849 0.495086 0.000000
H932  H     H_    0.127305 0.666694 0.549543 0.000000
H933  H     H_    0.163171 0.724531 0.551385 0.000000
H934  H     H_    0.195681 0.648182 0.543644 0.000000
H935  H     H_    0.224119 0.741350 0.628867 0.000000
H936  H     H_    0.192138 0.679476 0.620974 0.000000
H937  H     H_    0.344580 0.644169 0.696760 0.000000
H938  H     H_    0.441315 0.700508 0.745902 0.000000
H939  H     H_    0.482598 0.785311 0.752258 0.000000
H940  H     H_    0.427917 0.817610 0.718076 0.000000
C847  C     C_3   0.083977 0.421939 0.514646 0.000000
N283  N     N_3   0.137723 0.439971 0.550865 0.000000
C848  C     C_3   0.153851 0.482634 0.597645 0.000000
C849  C     C_R   0.210912 0.507500 0.631891 0.000000
N284  N     N_R   0.232372 0.480038 0.646188 0.000000
C850  C     C_R   0.276173 0.498462 0.642576 0.000000
C851  C     C_R   0.300996 0.473134 0.630931 0.000000
C852  C     C_R   0.343528 0.497031 0.625426 0.000000
C853  C     C_R   0.355513 0.541987 0.623894 0.000000
C854  C     C_R   0.322625 0.560897 0.624570 0.000000
C855  C     C_R   0.284236 0.539456 0.635036 0.000000
N285  N     N_R   0.244082 0.547354 0.628875 0.000000
H941  H     H_    0.069804 0.389454 0.477754 0.000000
H942  H     H_    0.060679 0.410454 0.532086 0.000000
H943  H     H_    0.078687 0.451966 0.508368 0.000000
H944  H     H_    0.162509 0.451862 0.536414 0.000000
H945  H     H_    0.146179 0.509555 0.587725 0.000000
H946  H     H_    0.130905 0.471049 0.615570 0.000000
H947  H     H_    0.287938 0.435223 0.624738 0.000000
H948  H     H_    0.365934 0.479380 0.619968 0.000000
H949  H     H_    0.388075 0.559426 0.618041 0.000000
H950  H     H_    0.325680 0.591552 0.617054 0.000000
C856  C     C_3   0.415184 0.651801 0.615004 0.000000
N286  N     N_3   0.368489 0.616266 0.564306 0.000000
C857  C     C_3   0.331195 0.633176 0.557066 0.000000
C858  C     C_R   0.277104 0.589318 0.519594 0.000000
N287  N     N_R   0.262161 0.560200 0.468900 0.000000
C859  C     C_R   0.212640 0.522992 0.451217 0.000000
C860  C     C_R   0.175356 0.485907 0.402021 0.000000
C861  C     C_R   0.126299 0.451439 0.391799 0.000000
C862  C     C_R   0.114539 0.456555 0.430934 0.000000
C863  C     C_R   0.151621 0.496850 0.479830 0.000000
C864  C     C_R   0.199498 0.529662 0.488666 0.000000
N288  N     N_R   0.238102 0.572494 0.532480 0.000000
H951  H     H_    0.447312 0.644569 0.616603 0.000000
H952  H     H_    0.427956 0.691646 0.622863 0.000000
H953  H     H_    0.407694 0.646667 0.645159 0.000000
H954  H     H_    0.350972 0.578889 0.557717 0.000000
H955  H     H_    0.334020 0.653645 0.593593 0.000000
H956  H     H_    0.340336 0.658127 0.540819 0.000000
H957  H     H_    0.182590 0.486722 0.371833 0.000000
H958  H     H_    0.096301 0.422154 0.352846 0.000000
H959  H     H_    0.075451 0.430895 0.422444 0.000000
H960  H     H_    0.143442 0.505479 0.510505 0.000000

loop_
_geom_bond_atom_site_label_1
_geom_bond_atom_site_label_2
_geom_bond_distance
_geom_bond_site_symmetry_2
_ccdc_geom_bond_type
Zn1   N8    2.024 .      S
Zn1   N30   2.124 .      S
Zn1   N162  2.079 .      S
Zn1   N198  2.117 1_556  S
Zn2   N3    2.139 .      S
Zn2   N5    2.070 1_554  S
Zn2   N9    2.067 1_554  S
Zn2   N11   2.156 .      S
Zn3   N12   2.144 .      S
Zn3   N146  2.093 .      S
Zn3   N201  2.138 .      S
Zn3   N239  2.104 .      S
Zn4   N15   2.128 .      S
Zn4   N18   2.022 .      S
Zn4   N20   2.084 .      S
Zn4   N24   2.091 .      S
Zn5   N2    2.118 1_556  S
Zn5   N26   2.008 .      S
Zn5   N99   2.106 .      S
Zn5   N135  2.082 .      S
Zn6   N17   2.024 .      S
Zn6   N125  2.103 .      S
Zn6   N206  2.120 .      S
Zn6   N278  2.079 .      S
Zn7   N21   2.070 .      S
Zn7   N149  2.042 .      S
Zn7   N189  2.163 .      S
Zn7   N282  2.132 .      S
Zn8   N27   2.086 .      S
Zn8   N29   2.112 1_655  S
Zn8   N32   2.114 .      S
Zn8   N36   2.142 .      S
Zn9   N38   2.132 .      S
Zn9   N42   2.048 .      S
Zn9   N44   2.106 .      S
Zn9   N48   2.172 .      S
Zn10  N47   2.084 .      S
Zn10  N84   2.050 .      S
Zn10  N92   2.026 .      S
Zn10  N228  2.063 .      S
Zn11  N51   2.123 .      S
Zn11  N54   2.049 .      S
Zn11  N57   2.067 .      S
Zn11  N60   2.106 1_545  S
Zn12  N63   2.084 .      S
Zn12  N110  1.999 .      S
Zn12  N231  2.123 .      S
Zn12  N269  2.157 .      S
Zn13  N35   2.124 .      S
Zn13  N108  2.042 .      S
Zn13  N122  2.137 .      S
Zn13  N260  2.093 .      S
Zn14  N59   2.186 .      S
Zn14  N65   2.090 .      S
Zn14  N117  2.056 .      S
Zn14  N258  2.138 .      S
Zn15  N14   2.128 .      S
Zn15  N105  2.114 .      S
Zn15  N129  2.056 .      S
Zn15  N219  2.130 1_556  S
Zn16  N78   2.046 .      S
Zn16  N90   2.105 .      S
Zn16  N177  2.088 .      S
Zn16  N245  2.106 .      S
Zn17  N45   2.071 .      S
Zn17  N53   2.029 1_565  S
Zn17  N72   2.103 .      S
Zn17  N144  2.112 1_565  S
Zn18  N33   2.076 .      S
Zn18  N56   2.010 .      S
Zn18  N164  2.051 1_655  S
Zn18  N215  2.042 .      S
Zn19  N155  2.104 .      S
Zn19  N173  2.101 .      S
Zn19  N203  2.089 .      S
Zn19  N287  2.143 .      S
Zn20  N62   2.062 .      S
Zn20  N66   2.075 .      S
Zn20  N69   2.165 .      S
Zn20  N71   2.035 .      S
Zn21  N75   2.152 .      S
Zn21  N77   2.091 .      S
Zn21  N81   2.160 .      S
Zn21  N83   2.088 .      S
Zn22  N86   2.196 .      S
Zn22  N89   2.111 .      S
Zn22  N93   2.007 .      S
Zn22  N96   2.111 .      S
Zn23  N98   2.125 .      S
Zn23  N102  1.998 .      S
Zn23  N104  2.025 1_655  S
Zn23  N107  2.021 .      S
Zn24  N111  2.039 .      S
Zn24  N114  2.127 .      S
Zn24  N116  2.164 .      S
Zn24  N119  2.140 .      S
Zn25  N123  2.080 .      S
Zn25  N126  2.184 .      S
Zn25  N128  2.062 .      S
Zn25  N131  2.065 .      S
Zn26  N134  2.121 1_554  S
Zn26  N137  2.024 1_554  S
Zn26  N140  2.066 .      S
Zn26  N143  2.071 .      S
Zn27  N147  2.046 .      S
Zn27  N150  2.146 .      S
Zn27  N153  2.068 .      S
Zn27  N156  2.020 .      S
Zn28  N159  2.097 .      S
Zn28  N161  2.142 .      S
Zn28  N165  2.077 .      S
Zn28  N168  2.107 .      S
Zn29  N171  2.013 .      S
Zn29  N174  2.045 .      S
Zn29  N176  2.089 .      S
Zn29  N180  1.991 .      S
Zn30  N182  2.080 .      S
Zn30  N185  2.025 .      S
Zn30  N188  2.083 1_545  S
Zn30  N191  2.047 .      S
Zn31  N194  2.026 .      S
Zn31  N197  2.103 .      S
Zn31  N200  2.112 .      S
Zn31  N204  2.050 .      S
Zn32  N207  2.133 .      S
Zn32  N209  2.098 1_655  S
Zn32  N212  2.059 .      S
Zn32  N216  2.151 .      S
Zn33  N23   2.042 .      S
Zn33  N39   2.113 1_566  S
Zn33  N138  2.040 .      S
Zn33  N186  2.095 1_565  S
Zn34  N6    2.078 .      S
Zn34  N141  2.117 1_556  S
Zn34  N192  2.051 .      S
Zn34  N272  2.086 .      S
Zn35  N218  2.020 .      S
Zn35  N222  2.064 .      S
Zn35  N225  2.076 .      S
Zn35  N227  2.087 .      S
Zn36  N230  2.059 .      S
Zn36  N234  2.043 .      S
Zn36  N236  2.049 1_655  S
Zn36  N240  2.120 1_655  S
Zn37  N243  2.082 .      S
Zn37  N246  2.150 .      S
Zn37  N249  2.102 .      S
Zn37  N252  2.126 .      S
Zn38  N254  2.049 .      S
Zn38  N257  2.094 .      S
Zn38  N261  2.092 .      S
Zn38  N263  2.077 .      S
Zn39  N74   2.145 .      S
Zn39  N183  2.095 .      S
Zn39  N242  2.075 .      S
Zn39  N266  2.104 .      S
Zn40  N113  2.086 .      S
Zn40  N170  2.128 .      S
Zn40  N195  2.076 .      S
Zn40  N255  2.065 .      S
Zn41  N41   2.046 .      S
Zn41  N50   2.125 .      S
Zn41  N87   2.141 .      S
Zn41  N213  1.995 .      S
Zn42  N68   2.073 .      S
Zn42  N101  2.069 .      S
Zn42  N221  2.063 1_655  S
Zn42  N233  2.069 .      S
Zn43  N158  2.066 .      S
Zn43  N210  2.043 .      S
Zn43  N248  2.043 .      S
Zn43  N284  2.089 .      S
Zn44  N80   2.077 .      S
Zn44  N152  2.064 .      S
Zn44  N224  2.065 .      S
Zn44  N237  2.016 .      S
Zn45  N120  2.141 1_556  S
Zn45  N167  2.059 .      S
Zn45  N251  2.054 .      S
Zn45  N276  2.165 .      S
Zn46  N95   2.131 .      S
Zn46  N132  2.052 .      S
Zn46  N179  2.068 .      S
Zn46  N264  2.058 .      S
Zn47  N267  2.064 .      S
Zn47  N270  2.080 .      S
Zn47  N273  2.106 .      S
Zn47  N275  1.994 .      S
Zn48  N279  2.113 .      S
Zn48  N281  2.068 .      S
Zn48  N285  2.105 .      S
Zn48  N288  2.134 .      S
C1    N1    1.461 .      S
C1    H1    1.088 .      S
C1    H2    1.089 .      S
C1    H3    1.102 .      S
N1    C2    1.430 .      S
N1    H4    1.039 .      S
C2    C3    1.467 .      S
C2    H5    1.086 .      S
C2    H6    1.097 .      S
N2    Zn5   2.118 1_554  S
C5    H7    1.074 .      S
C6    H8    1.081 .      S
C7    H9    1.080 .      S
C8    H10   1.070 .      S
C10   N4    1.454 .      S
C10   H11   1.107 .      S
C10   H12   1.108 .      S
C10   H13   1.096 .      S
N4    C11   1.453 .      S
N4    H14   1.032 .      S
C11   C12   1.493 .      S
C11   H15   1.083 .      S
C11   H16   1.101 .      S
N5    Zn2   2.070 1_556  S
C14   H17   1.066 .      S
C15   H18   1.081 .      S
C16   H19   1.081 .      S
C17   H20   1.067 .      S
C19   N7    1.459 .      S
C19   H21   1.106 .      S
C19   H22   1.104 .      S
C19   H23   1.108 .      S
N7    C20   1.456 .      S
N7    H24   1.027 .      S
C20   C21   1.507 .      S
C20   H25   1.084 .      S
C20   H26   1.091 .      S
C23   H27   1.060 .      S
C24   H28   1.081 .      S
C25   H29   1.081 .      S
C26   H30   1.075 .      S
N9    Zn2   2.067 1_556  S
C28   N10   1.455 .      S
C28   H31   1.106 .      S
C28   H32   1.092 .      S
C28   H33   1.107 .      S
N10   C29   1.458 .      S
N10   H34   1.036 .      S
C29   C30   1.471 1_455  S
C29   H35   1.095 1_455  S
C29   H36   1.081 1_455  S
C30   C29   1.471 1_655  S
C32   H37   1.062 .      S
C33   H38   1.080 .      S
C34   H39   1.081 .      S
C35   H40   1.059 .      S
H35   C29   1.095 1_655  S
H36   C29   1.081 1_655  S
C37   N13   1.457 .      S
C37   H41   1.108 .      S
C37   H42   1.092 .      S
C37   H43   1.090 .      S
N13   C38   1.450 .      S
N13   H44   1.041 .      S
C38   C39   1.473 .      S
C38   H45   1.096 .      S
C38   H46   1.099 .      S
C41   H47   1.052 .      S
C42   H48   1.081 1_565  S
C43   H49   1.081 .      S
C44   H50   1.057 .      S
H48   C42   1.081 1_545  S
C46   N16   1.454 .      S
C46   H51   1.106 .      S
C46   H52   1.108 .      S
C46   H53   1.105 .      S
N16   C47   1.450 .      S
N16   H54   1.041 .      S
C47   C48   1.483 .      S
C47   H55   1.086 .      S
C47   H56   1.084 .      S
C50   H57   1.059 .      S
C51   H58   1.080 .      S
C52   H59   1.081 .      S
C53   H60   1.076 .      S
C55   N19   1.449 .      S
C55   H61   1.076 .      S
C55   H62   1.103 .      S
C55   H63   1.087 .      S
N19   C56   1.448 .      S
N19   H64   1.043 .      S
C56   C57   1.464 .      S
C56   H65   1.094 .      S
C56   H66   1.090 .      S
C59   H67   1.073 .      S
C60   H68   1.081 .      S
C61   H69   1.080 .      S
C62   H70   1.077 .      S
C64   N22   1.454 1_554  S
C64   H71   1.106 1_565  S
C64   H72   1.109 1_564  S
C64   H73   1.108 1_554  S
N22   C64   1.454 1_556  S
N22   C65   1.450 .      S
N22   H74   1.044 .      S
C65   C66   1.467 .      S
C65   H75   1.085 .      S
C65   H76   1.100 .      S
C68   H77   1.069 .      S
C69   H78   1.081 .      S
C70   H79   1.081 .      S
C71   H80   1.065 .      S
H71   C64   1.106 1_545  S
H72   C64   1.109 1_546  S
H73   C64   1.108 1_556  S
C73   N25   1.458 1_454  S
C73   H81   1.109 .      S
C73   H82   1.109 .      S
C73   H83   1.097 .      S
N25   C73   1.458 1_656  S
N25   C74   1.427 .      S
N25   H84   1.033 1_655  S
C74   C75   1.485 .      S
C74   H85   1.073 .      S
C74   H86   1.066 .      S
C77   H87   1.078 .      S
C78   H88   1.081 .      S
C79   H89   1.081 .      S
C80   H90   1.077 .      S
H84   N25   1.033 1_455  S
C82   N28   1.455 .      S
C82   H91   1.106 .      S
C82   H92   1.106 .      S
C82   H93   1.104 .      S
N28   C83   1.452 .      S
N28   H94   1.033 .      S
C83   C84   1.498 1_655  S
C83   H95   1.087 .      S
C83   H96   1.084 .      S
C84   C83   1.498 1_455  S
N29   Zn8   2.112 1_455  S
C86   H97   1.068 .      S
C87   H98   1.081 .      S
C88   H99   1.081 1_556  S
C89   H100  1.077 1_556  S
H99   C88   1.081 1_554  S
H100  C89   1.077 1_554  S
C91   N31   1.446 1_455  S
C91   H101  1.100 .      S
C91   H102  1.089 .      S
C91   H103  1.108 .      S
N31   C91   1.446 1_655  S
N31   C92   1.437 .      S
N31   H104  1.027 .      S
C92   C93   1.436 .      S
C92   H105  1.088 1_655  S
C92   H106  1.059 1_655  S
C95   H107  1.060 .      S
C96   H108  1.077 .      S
C97   H109  1.079 1_545  S
C98   H110  1.060 .      S
H105  C92   1.088 1_455  S
H106  C92   1.059 1_455  S
H109  C97   1.079 1_565  S
C100  N34   1.460 .      S
C100  H111  1.108 .      S
C100  H112  1.109 .      S
C100  H113  1.098 .      S
N34   C101  1.450 .      S
N34   H114  1.037 .      S
C101  C102  1.478 .      S
C101  H115  1.082 .      S
C101  H116  1.106 .      S
C104  H117  1.070 1_455  S
C105  H118  1.081 .      S
C106  H119  1.081 .      S
C107  H120  1.075 .      S
H117  C104  1.070 1_655  S
C109  N37   1.458 .      S
C109  H121  1.092 .      S
C109  H122  1.108 .      S
C109  H123  1.105 .      S
N37   C110  1.452 .      S
N37   H124  1.042 .      S
C110  C111  1.472 1_565  S
C110  H125  1.097 .      S
C110  H126  1.097 .      S
C111  C110  1.472 1_545  S
C113  H127  1.063 .      S
C114  H128  1.078 .      S
C115  H129  1.081 .      S
C116  H130  1.065 .      S
N39   Zn33  2.113 1_544  S
C118  N40   1.455 .      S
C118  H131  1.089 .      S
C118  H132  1.109 .      S
C118  H133  1.100 1_545  S
N40   C119  1.444 .      S
N40   H134  1.033 .      S
C119  C120  1.483 .      S
C119  H135  1.095 .      S
C119  H136  1.090 .      S
C122  H137  1.070 .      S
C123  H138  1.081 .      S
C124  H139  1.081 .      S
C125  H140  1.070 .      S
H133  C118  1.100 1_565  S
C127  N43   1.435 .      S
C127  H141  1.102 .      S
C127  H142  1.108 .      S
C127  H143  1.100 .      S
N43   C128  1.440 .      S
N43   H144  1.044 .      S
C128  C129  1.494 .      S
C128  H145  1.102 .      S
C128  H146  1.079 .      S
C131  H147  1.075 .      S
C132  H148  1.081 .      S
C133  H149  1.081 .      S
C134  H150  1.074 .      S
C136  N46   1.460 .      S
C136  H151  1.106 .      S
C136  H152  1.107 .      S
C136  H153  1.103 .      S
N46   C137  1.448 .      S
N46   H154  1.039 .      S
C137  C138  1.486 .      S
C137  H155  1.093 .      S
C137  H156  1.081 .      S
C140  H157  1.080 .      S
C141  H158  1.078 .      S
C142  H159  1.081 .      S
C143  H160  1.052 .      S
C145  N49   1.451 .      S
C145  H161  1.107 .      S
C145  H162  1.109 .      S
C145  H163  1.085 .      S
N49   C146  1.449 .      S
N49   H164  1.039 .      S
C146  C147  1.477 .      S
C146  H165  1.089 .      S
C146  H166  1.102 .      S
C149  H167  1.071 .      S
C150  H168  1.081 .      S
C151  H169  1.081 .      S
C152  H170  1.070 .      S
C154  N52   1.456 .      S
C154  H171  1.107 .      S
C154  H172  1.108 .      S
C154  H173  1.105 .      S
N52   C155  1.442 .      S
N52   H174  1.040 .      S
C155  C156  1.479 1_565  S
C155  H175  1.093 .      S
C155  H176  1.093 .      S
C156  C155  1.479 1_545  S
N53   Zn17  2.029 1_545  S
C158  H177  1.079 .      S
C159  H178  1.081 .      S
C160  H179  1.080 .      S
C161  H180  1.078 .      S
C163  N55   1.450 .      S
C163  H181  1.104 .      S
C163  H182  1.109 .      S
C163  H183  1.104 .      S
N55   C164  1.450 .      S
N55   H184  1.038 .      S
C164  C165  1.488 .      S
C164  H185  1.072 .      S
C164  H186  1.103 .      S
C167  H187  1.056 .      S
C168  H188  1.081 .      S
C169  H189  1.080 1_655  S
C170  H190  1.064 .      S
H189  C169  1.080 1_455  S
C172  N58   1.450 .      S
C172  H191  1.109 .      S
C172  H192  1.084 .      S
C172  H193  1.076 1_565  S
N58   C173  1.450 .      S
N58   H194  1.043 .      S
C173  C174  1.468 .      S
C173  H195  1.098 .      S
C173  H196  1.096 .      S
C176  H197  1.060 .      S
C177  H198  1.079 .      S
C178  H199  1.081 .      S
C179  H200  1.078 1_565  S
N60   Zn11  2.106 1_565  S
H193  C172  1.076 1_545  S
H200  C179  1.078 1_545  S
C181  N61   1.446 .      S
C181  H201  1.094 .      S
C181  H202  1.109 .      S
C181  H203  1.091 .      S
N61   C182  1.446 .      S
N61   H204  1.042 .      S
C182  C183  1.465 .      S
C182  H205  1.092 .      S
C182  H206  1.103 .      S
C185  H207  1.078 .      S
C186  H208  1.081 .      S
C187  H209  1.080 .      S
C188  H210  1.070 1_554  S
H210  C188  1.070 1_556  S
C190  N64   1.460 .      S
C190  H211  1.090 .      S
C190  H212  1.096 .      S
C190  H213  1.104 .      S
N64   C191  1.452 .      S
N64   H214  1.041 .      S
C191  C192  1.490 .      S
C191  H215  1.096 .      S
C191  H216  1.104 .      S
C194  H217  1.075 .      S
C195  H218  1.081 .      S
C196  H219  1.081 .      S
C197  H220  1.077 .      S
C199  N67   1.450 1_556  S
C199  H221  1.107 .      S
C199  H222  1.082 .      S
C199  H223  1.083 1_556  S
N67   C199  1.450 1_554  S
N67   C200  1.456 .      S
N67   H224  1.042 .      S
C200  C201  1.472 .      S
C200  H225  1.089 .      S
C200  H226  1.098 .      S
C203  H227  1.073 .      S
C204  H228  1.081 1_565  S
C205  H229  1.081 1_565  S
C206  H230  1.073 .      S
H223  C199  1.083 1_554  S
H228  C204  1.081 1_545  S
H229  C205  1.081 1_545  S
C208  N70   1.460 .      S
C208  H231  1.105 1_565  S
C208  H232  1.102 1_565  S
C208  H233  1.102 .      S
N70   C209  1.436 .      S
N70   H234  1.029 .      S
C209  C210  1.485 .      S
C209  H235  1.105 .      S
C209  H236  1.094 .      S
C212  H237  1.066 .      S
C213  H238  1.081 .      S
C214  H239  1.081 .      S
C215  H240  1.065 .      S
H231  C208  1.105 1_545  S
H232  C208  1.102 1_545  S
C217  N73   1.460 .      S
C217  H241  1.109 .      S
C217  H242  1.099 .      S
C217  H243  1.089 .      S
N73   C218  1.451 .      S
N73   H244  1.043 .      S
C218  C219  1.481 .      S
C218  H245  1.098 .      S
C218  H246  1.103 .      S
C221  H247  1.063 .      S
C222  H248  1.079 .      S
C223  H249  1.081 .      S
C224  H250  1.059 .      S
C226  N76   1.443 .      S
C226  H251  1.087 .      S
C226  H252  1.102 .      S
C226  H253  1.103 .      S
N76   C227  1.443 .      S
N76   H254  1.038 .      S
C227  C228  1.463 .      S
C227  H255  1.089 .      S
C227  H256  1.091 .      S
C230  H257  1.070 .      S
C231  H258  1.079 .      S
C232  H259  1.081 .      S
C233  H260  1.074 .      S
C235  N79   1.452 .      S
C235  H261  1.101 .      S
C235  H262  1.109 .      S
C235  H263  1.104 .      S
N79   C236  1.452 .      S
N79   H264  1.041 .      S
C236  C237  1.480 .      S
C236  H265  1.073 1_565  S
C236  H266  1.089 .      S
C239  H267  1.069 .      S
C240  H268  1.081 .      S
C241  H269  1.080 .      S
C242  H270  1.071 .      S
H265  C236  1.073 1_545  S
C244  N82   1.451 .      S
C244  H271  1.102 .      S
C244  H272  1.105 .      S
C244  H273  1.109 .      S
N82   C245  1.450 .      S
N82   H274  1.016 .      S
C245  C246  1.499 .      S
C245  H275  1.099 .      S
C245  H276  1.077 .      S
C248  H277  1.077 .      S
C249  H278  1.081 .      S
C250  H279  1.081 .      S
C251  H280  1.062 .      S
C253  N85   1.448 .      S
C253  H281  1.108 .      S
C253  H282  1.087 .      S
C253  H283  1.083 .      S
N85   C254  1.438 .      S
N85   H284  1.030 .      S
C254  C255  1.448 .      S
C254  H285  1.101 .      S
C254  H286  1.075 .      S
C257  H287  1.056 .      S
C258  H288  1.081 .      S
C259  H289  1.076 .      S
C260  H290  1.050 .      S
C262  N88   1.455 .      S
C262  H291  1.103 .      S
C262  H292  1.107 .      S
C262  H293  1.108 .      S
N88   C263  1.446 .      S
N88   H294  1.037 .      S
C263  C264  1.493 .      S
C263  H295  1.107 .      S
C263  H296  1.096 .      S
C266  H297  1.076 .      S
C267  H298  1.081 .      S
C268  H299  1.080 .      S
C269  H300  1.071 .      S
C271  N91   1.458 .      S
C271  H301  1.097 .      S
C271  H302  1.108 .      S
C271  H303  1.104 .      S
N91   C272  1.439 .      S
N91   H304  1.026 .      S
C272  C273  1.501 .      S
C272  H305  1.100 .      S
C272  H306  1.073 .      S
C275  H307  1.075 .      S
C276  H308  1.081 .      S
C277  H309  1.079 .      S
C278  H310  1.064 .      S
C280  N94   1.455 .      S
C280  H311  1.108 .      S
C280  H312  1.106 .      S
C280  H313  1.105 .      S
N94   C281  1.439 .      S
N94   H314  1.035 .      S
C281  C282  1.494 .      S
C281  H315  1.100 .      S
C281  H316  1.102 .      S
C284  H317  1.058 .      S
C285  H318  1.081 .      S
C286  H319  1.081 .      S
C287  H320  1.059 .      S
C289  N97   1.428 .      S
C289  H321  1.103 1_655  S
C289  H322  1.093 1_545  S
C289  H323  1.094 .      S
N97   C290  1.445 .      S
N97   H324  1.042 1_655  S
C290  C291  1.455 .      S
C290  H325  1.083 .      S
C290  H326  1.076 1_545  S
C293  H327  1.063 .      S
C294  H328  1.079 .      S
C295  H329  1.081 .      S
C296  H330  1.078 .      S
H321  C289  1.103 1_455  S
H322  C289  1.093 1_565  S
H324  N97   1.042 1_455  S
H326  C290  1.076 1_565  S
C298  N100  1.453 1_545  S
C298  H331  1.109 .      S
C298  H332  1.106 .      S
C298  H333  1.107 .      S
N100  C298  1.453 1_565  S
N100  C299  1.450 .      S
N100  H334  1.040 .      S
C299  C300  1.487 1_455  S
C299  H335  1.101 .      S
C299  H336  1.082 .      S
C300  C299  1.487 1_655  S
C302  H337  1.069 1_556  S
C303  H338  1.079 .      S
C304  H339  1.081 .      S
C305  H340  1.057 .      S
H337  C302  1.069 1_554  S
C307  N103  1.453 .      S
C307  H341  1.090 .      S
C307  H342  1.084 .      S
C307  H343  1.103 .      S
N103  C308  1.447 .      S
N103  H344  1.042 1_655  S
C308  C309  1.481 1_655  S
C308  H345  1.093 .      S
C308  H346  1.099 .      S
C309  C308  1.481 1_455  S
N104  Zn23  2.025 1_455  S
C311  H347  1.076 .      S
C312  H348  1.081 .      S
C313  H349  1.081 .      S
C314  H350  1.080 .      S
H344  N103  1.042 1_455  S
C316  N106  1.447 .      S
C316  H351  1.109 .      S
C316  H352  1.094 .      S
C316  H353  1.106 .      S
N106  C317  1.443 1_455  S
N106  H354  1.035 .      S
C317  N106  1.443 1_655  S
C317  C318  1.497 .      S
C317  H355  1.087 .      S
C317  H356  1.087 .      S
C320  H357  1.080 .      S
C321  H358  1.079 .      S
C322  H359  1.081 .      S
C323  H360  1.068 .      S
C325  N109  1.459 .      S
C325  H361  1.101 .      S
C325  H362  1.081 .      S
C325  H363  1.099 .      S
N109  C326  1.455 .      S
N109  H364  1.040 .      S
C326  C327  1.486 .      S
C326  H365  1.086 .      S
C326  H366  1.098 .      S
C329  H367  1.080 .      S
C330  H368  1.081 .      S
C331  H369  1.079 .      S
C332  H370  1.072 .      S
C334  N112  1.456 .      S
C334  H371  1.109 .      S
C334  H372  1.105 .      S
C334  H373  1.107 .      S
N112  C335  1.448 .      S
N112  H374  1.032 .      S
C335  C336  1.474 .      S
C335  H375  1.095 .      S
C335  H376  1.093 .      S
C338  H377  1.052 .      S
C339  H378  1.069 .      S
C340  H379  1.080 .      S
C341  H380  1.052 .      S
C343  N115  1.458 .      S
C343  H381  1.092 .      S
C343  H382  1.103 .      S
C343  H383  1.108 .      S
N115  C344  1.452 .      S
N115  H384  1.036 .      S
C344  C345  1.488 .      S
C344  H385  1.096 .      S
C344  H386  1.097 .      S
C347  H387  1.061 .      S
C348  H388  1.081 .      S
C349  H389  1.081 .      S
C350  H390  1.073 .      S
C352  N118  1.454 .      S
C352  H391  1.094 .      S
C352  H392  1.108 .      S
C352  H393  1.093 .      S
N118  C353  1.422 .      S
N118  H394  1.040 .      S
C353  C354  1.450 .      S
C353  H395  1.098 .      S
C353  H396  1.097 .      S
C356  H397  1.062 .      S
C357  H398  1.081 .      S
C358  H399  1.079 .      S
C359  H400  1.059 .      S
N120  Zn45  2.141 1_554  S
C361  N121  1.456 .      S
C361  H401  1.106 .      S
C361  H402  1.094 .      S
C361  H403  1.106 .      S
N121  C362  1.452 .      S
N121  H404  1.039 .      S
C362  C363  1.482 .      S
C362  H405  1.092 .      S
C362  H406  1.096 .      S
C365  H407  1.074 .      S
C366  H408  1.081 1_655  S
C367  H409  1.081 .      S
C368  H410  1.080 .      S
H408  C366  1.081 1_455  S
C370  N124  1.453 .      S
C370  H411  1.106 .      S
C370  H412  1.097 .      S
C370  H413  1.096 .      S
N124  C371  1.449 .      S
N124  H414  1.038 1_455  S
C371  C372  1.476 .      S
C371  H415  1.092 .      S
C371  H416  1.091 .      S
C374  H417  1.071 .      S
C375  H418  1.076 .      S
C376  H419  1.080 .      S
C377  H420  1.042 .      S
H414  N124  1.038 1_655  S
C379  N127  1.455 .      S
C379  H421  1.102 .      S
C379  H422  1.107 .      S
C379  H423  1.088 .      S
N127  C380  1.450 .      S
N127  H424  1.043 .      S
C380  C381  1.479 .      S
C380  H425  1.098 .      S
C380  H426  1.101 .      S
C383  H427  1.078 .      S
C384  H428  1.081 .      S
C385  H429  1.081 .      S
C386  H430  1.073 .      S
C388  N130  1.459 .      S
C388  H431  1.106 .      S
C388  H432  1.105 .      S
C388  H433  1.106 .      S
N130  C389  1.438 .      S
N130  H434  1.039 .      S
C389  C390  1.488 .      S
C389  H435  1.092 .      S
C389  H436  1.092 .      S
C392  H437  1.068 .      S
C393  H438  1.081 .      S
C394  H439  1.081 .      S
C395  H440  1.068 .      S
C397  N133  1.434 .      S
C397  H441  1.098 .      S
C397  H442  1.090 .      S
C397  H443  1.079 .      S
N133  C398  1.449 .      S
N133  H444  1.041 .      S
C398  C399  1.440 .      S
C398  H445  1.088 1_556  S
C398  H446  1.088 1_556  S
N134  Zn26  2.121 1_556  S
C401  H447  1.067 1_556  S
C402  H448  1.081 .      S
C403  H449  1.076 .      S
C404  H450  1.080 .      S
H445  C398  1.088 1_554  S
H446  C398  1.088 1_554  S
H447  C401  1.067 1_554  S
C406  N136  1.456 .      S
C406  H451  1.082 .      S
C406  H452  1.107 .      S
C406  H453  1.098 .      S
N136  C407  1.437 .      S
N136  H454  1.036 .      S
C407  C408  1.491 1_554  S
C407  H455  1.097 .      S
C407  H456  1.089 1_554  S
C408  C407  1.491 1_556  S
N137  Zn26  2.024 1_556  S
C410  H457  1.064 .      S
C411  H458  1.081 .      S
C412  H459  1.077 .      S
C413  H460  1.058 .      S
H456  C407  1.089 1_556  S
C415  N139  1.453 .      S
C415  H461  1.105 1_545  S
C415  H462  1.097 .      S
C415  H463  1.107 .      S
N139  C416  1.444 .      S
N139  H464  1.024 .      S
C416  C417  1.511 .      S
C416  H465  1.072 .      S
C416  H466  1.103 .      S
C419  H467  1.069 .      S
C420  H468  1.081 .      S
C421  H469  1.081 .      S
C422  H470  1.063 .      S
N141  Zn34  2.117 1_554  S
H461  C415  1.105 1_565  S
C424  N142  1.460 .      S
C424  H471  1.102 1_554  S
C424  H472  1.110 .      S
C424  H473  1.103 .      S
N142  C425  1.439 .      S
N142  H474  1.039 .      S
C425  C426  1.468 1_565  S
C425  H475  1.104 .      S
C425  H476  1.090 .      S
C426  C425  1.468 1_545  S
C428  H477  1.077 .      S
C429  H478  1.080 .      S
C430  H479  1.081 .      S
C431  H480  1.069 .      S
N144  Zn17  2.112 1_545  S
H471  C424  1.102 1_556  S
C433  N145  1.454 .      S
C433  H481  1.107 .      S
C433  H482  1.108 .      S
C433  H483  1.109 .      S
N145  C434  1.444 .      S
N145  H484  1.034 .      S
C434  C435  1.490 .      S
C434  H485  1.092 .      S
C434  H486  1.106 .      S
C437  H487  1.071 1_455  S
C438  H488  1.081 1_455  S
C439  H489  1.081 .      S
C440  H490  1.078 .      S
H487  C437  1.071 1_655  S
H488  C438  1.081 1_655  S
C442  N148  1.454 .      S
C442  H491  1.109 .      S
C442  H492  1.108 .      S
C442  H493  1.106 .      S
N148  C443  1.451 .      S
N148  H494  1.042 .      S
C443  C444  1.491 .      S
C443  H495  1.104 .      S
C443  H496  1.108 .      S
C446  H497  1.062 .      S
C447  H498  1.081 .      S
C448  H499  1.069 .      S
C449  H500  1.048 .      S
C451  N151  1.456 .      S
C451  H501  1.110 .      S
C451  H502  1.099 .      S
C451  H503  1.108 .      S
N151  C452  1.448 .      S
N151  H504  1.042 .      S
C452  C453  1.481 .      S
C452  H505  1.068 .      S
C452  H506  1.101 .      S
C455  H507  1.054 .      S
C456  H508  1.081 .      S
C457  H509  1.066 .      S
C458  H510  1.073 .      S
C460  N154  1.456 .      S
C460  H511  1.102 .      S
C460  H512  1.104 .      S
C460  H513  1.092 .      S
N154  C461  1.456 .      S
N154  H514  1.039 .      S
C461  C462  1.483 .      S
C461  H515  1.097 .      S
C461  H516  1.091 .      S
C464  H517  1.066 .      S
C465  H518  1.080 .      S
C466  H519  1.081 .      S
C467  H520  1.074 .      S
C469  N157  1.455 .      S
C469  H521  1.098 .      S
C469  H522  1.106 .      S
C469  H523  1.094 .      S
N157  C470  1.450 .      S
N157  H524  1.040 .      S
C470  C471  1.488 .      S
C470  H525  1.095 .      S
C470  H526  1.099 .      S
C473  H527  1.080 .      S
C474  H528  1.080 .      S
C475  H529  1.081 .      S
C476  H530  1.074 .      S
C478  N160  1.453 .      S
C478  H531  1.094 .      S
C478  H532  1.103 .      S
C478  H533  1.108 .      S
N160  C479  1.442 .      S
N160  H534  1.027 .      S
C479  C480  1.470 .      S
C479  H535  1.076 .      S
C479  H536  1.094 .      S
C482  H537  1.065 .      S
C483  H538  1.081 .      S
C484  H539  1.081 .      S
C485  H540  1.080 .      S
C487  N163  1.448 .      S
C487  H541  1.095 .      S
C487  H542  1.107 .      S
C487  H543  1.098 .      S
N163  C488  1.420 .      S
N163  H544  1.028 .      S
C488  C489  1.476 .      S
C488  H545  1.099 .      S
C488  H546  1.077 .      S
N164  Zn18  2.051 1_455  S
C491  H547  1.081 .      S
C492  H548  1.081 .      S
C493  H549  1.081 .      S
C494  H550  1.079 .      S
C496  N166  1.459 .      S
C496  H551  1.107 .      S
C496  H552  1.102 .      S
C496  H553  1.095 .      S
N166  C497  1.445 .      S
N166  H554  1.037 .      S
C497  C498  1.483 .      S
C497  H555  1.098 .      S
C497  H556  1.095 .      S
C500  H557  1.056 .      S
C501  H558  1.081 .      S
C502  H559  1.080 .      S
C503  H560  1.046 .      S
C505  N169  1.445 .      S
C505  H561  1.091 .      S
C505  H562  1.090 .      S
C505  H563  1.097 .      S
N169  C506  1.451 .      S
N169  H564  1.041 .      S
C506  C507  1.492 .      S
C506  H565  1.100 .      S
C506  H566  1.098 .      S
C509  H567  1.077 .      S
C510  H568  1.081 .      S
C511  H569  1.081 .      S
C512  H570  1.079 .      S
C514  N172  1.458 .      S
C514  H571  1.109 .      S
C514  H572  1.109 .      S
C514  H573  1.104 .      S
N172  C515  1.445 .      S
N172  H574  1.039 .      S
C515  C516  1.487 .      S
C515  H575  1.101 .      S
C515  H576  1.108 .      S
C518  H577  1.063 .      S
C519  H578  1.081 .      S
C520  H579  1.079 .      S
C521  H580  1.068 .      S
C523  N175  1.447 .      S
C523  H581  1.088 .      S
C523  H582  1.109 .      S
C523  H583  1.094 .      S
N175  C524  1.422 .      S
N175  H584  1.030 .      S
C524  C525  1.453 .      S
C524  H585  1.076 .      S
C524  H586  1.099 .      S
C527  H587  1.068 .      S
C528  H588  1.080 .      S
C529  H589  1.081 .      S
C530  H590  1.059 .      S
C532  N178  1.439 .      S
C532  H591  1.081 .      S
C532  H592  1.103 .      S
C532  H593  1.102 .      S
N178  C533  1.435 .      S
N178  H594  1.038 .      S
C533  C534  1.467 .      S
C533  H595  1.092 .      S
C533  H596  1.089 .      S
C536  H597  1.065 .      S
C537  H598  1.081 .      S
C538  H599  1.081 .      S
C539  H600  1.081 .      S
C541  N181  1.459 .      S
C541  H601  1.091 .      S
C541  H602  1.109 .      S
C541  H603  1.099 .      S
N181  C542  1.447 .      S
N181  H604  1.035 .      S
C542  C543  1.470 .      S
C542  H605  1.102 .      S
C542  H606  1.081 .      S
C545  H607  1.069 .      S
C546  H608  1.081 .      S
C547  H609  1.081 .      S
C548  H610  1.067 .      S
C550  N184  1.449 .      S
C550  H611  1.096 .      S
C550  H612  1.106 .      S
C550  H613  1.101 .      S
N184  C551  1.444 .      S
N184  H614  1.039 .      S
C551  C552  1.476 1_565  S
C551  H615  1.093 1_565  S
C551  H616  1.102 1_565  S
C552  C551  1.476 1_545  S
C554  H617  1.069 .      S
C555  H618  1.081 .      S
C556  H619  1.081 .      S
C557  H620  1.065 .      S
N186  Zn33  2.095 1_545  S
H615  C551  1.093 1_545  S
H616  C551  1.102 1_545  S
C559  N187  1.440 .      S
C559  H621  1.097 .      S
C559  H622  1.101 .      S
C559  H623  1.105 .      S
N187  C560  1.439 .      S
N187  H624  1.038 .      S
C560  C561  1.449 .      S
C560  H625  1.085 .      S
C560  H626  1.091 .      S
N188  Zn30  2.083 1_565  S
C563  H627  1.056 1_565  S
C564  H628  1.081 .      S
C565  H629  1.081 .      S
C566  H630  1.055 .      S
H627  C563  1.056 1_545  S
C568  N190  1.454 .      S
C568  H631  1.107 .      S
C568  H632  1.109 .      S
C568  H633  1.107 .      S
N190  C569  1.448 .      S
N190  H634  1.041 .      S
C569  C570  1.486 .      S
C569  H635  1.104 .      S
C569  H636  1.106 .      S
C572  H637  1.066 .      S
C573  H638  1.081 .      S
C574  H639  1.081 .      S
C575  H640  1.053 .      S
C577  N193  1.457 .      S
C577  H641  1.107 .      S
C577  H642  1.105 .      S
C577  H643  1.108 .      S
N193  C578  1.446 .      S
N193  H644  1.035 .      S
C578  C579  1.478 .      S
C578  H645  1.104 .      S
C578  H646  1.093 .      S
C581  H647  1.056 .      S
C582  H648  1.081 .      S
C583  H649  1.080 .      S
C584  H650  1.061 .      S
C586  N196  1.434 .      S
C586  H651  1.102 .      S
C586  H652  1.085 .      S
C586  H653  1.093 .      S
N196  C587  1.445 .      S
N196  H654  1.028 .      S
C587  C588  1.458 .      S
C587  H655  1.074 .      S
C587  H656  1.096 .      S
C590  H657  1.060 .      S
C591  H658  1.080 .      S
C592  H659  1.081 .      S
C593  H660  1.054 .      S
N198  Zn1   2.117 1_554  S
C595  N199  1.453 .      S
C595  H661  1.105 .      S
C595  H662  1.107 .      S
C595  H663  1.091 .      S
N199  C596  1.437 .      S
N199  H664  1.030 .      S
C596  C597  1.480 .      S
C596  H665  1.102 .      S
C596  H666  1.086 .      S
C599  H667  1.081 .      S
C600  H668  1.081 .      S
C601  H669  1.081 .      S
C602  H670  1.077 .      S
C604  N202  1.457 .      S
C604  H671  1.095 .      S
C604  H672  1.094 .      S
C604  H673  1.108 .      S
N202  C605  1.454 .      S
N202  H674  1.037 .      S
C605  C606  1.480 .      S
C605  H675  1.087 .      S
C605  H676  1.085 .      S
C608  H677  1.073 .      S
C609  H678  1.081 .      S
C610  H679  1.081 .      S
C611  H680  1.072 .      S
C613  N205  1.454 .      S
C613  H681  1.105 .      S
C613  H682  1.109 .      S
C613  H683  1.108 .      S
N205  C614  1.454 1_655  S
N205  H684  1.040 .      S
C614  N205  1.454 1_455  S
C614  C615  1.468 .      S
C614  H685  1.089 .      S
C614  H686  1.093 .      S
C617  H687  1.064 .      S
C618  H688  1.080 .      S
C619  H689  1.081 .      S
C620  H690  1.054 .      S
C622  N208  1.452 .      S
C622  H691  1.097 .      S
C622  H692  1.098 .      S
C622  H693  1.105 .      S
N208  C623  1.432 .      S
N208  H694  1.040 .      S
C623  C624  1.467 .      S
C623  H695  1.099 .      S
C623  H696  1.078 .      S
N209  Zn32  2.098 1_455  S
C626  H697  1.071 .      S
C627  H698  1.079 1_455  S
C628  H699  1.081 .      S
C629  H700  1.081 .      S
H698  C627  1.079 1_655  S
C631  N211  1.456 .      S
C631  H701  1.107 .      S
C631  H702  1.109 .      S
C631  H703  1.107 .      S
N211  C632  1.449 .      S
N211  H704  1.037 .      S
C632  C633  1.478 .      S
C632  H705  1.097 .      S
C632  H706  1.098 .      S
C635  H707  1.048 .      S
C636  H708  1.081 .      S
C637  H709  1.081 .      S
C638  H710  1.062 .      S
C640  N214  1.456 .      S
C640  H711  1.096 .      S
C640  H712  1.108 1_455  S
C640  H713  1.096 .      S
N214  C641  1.433 .      S
N214  H714  1.036 .      S
C641  C642  1.473 1_455  S
C641  H715  1.090 .      S
C641  H716  1.096 1_455  S
C642  C641  1.473 1_655  S
C644  H717  1.078 .      S
C645  H718  1.081 .      S
C646  H719  1.081 .      S
C647  H720  1.075 .      S
H712  C640  1.108 1_655  S
H716  C641  1.096 1_655  S
C649  N217  1.452 1_545  S
C649  H721  1.108 .      S
C649  H722  1.106 .      S
C649  H723  1.101 .      S
N217  C649  1.452 1_565  S
N217  C650  1.450 .      S
N217  H724  1.033 .      S
C650  C651  1.486 .      S
C650  H725  1.087 .      S
C650  H726  1.084 .      S
C653  H727  1.065 .      S
C654  H728  1.081 .      S
C655  H729  1.078 .      S
C656  H730  1.063 .      S
N219  Zn15  2.130 1_554  S
C658  N220  1.459 .      S
C658  H731  1.100 .      S
C658  H732  1.090 .      S
C658  H733  1.104 .      S
N220  C659  1.455 .      S
N220  H734  1.041 .      S
C659  C660  1.482 .      S
C659  H735  1.088 .      S
C659  H736  1.092 .      S
N221  Zn42  2.063 1_455  S
C662  H737  1.072 .      S
C663  H738  1.081 .      S
C664  H739  1.080 .      S
C665  H740  1.078 .      S
C667  N223  1.461 .      S
C667  H741  1.093 .      S
C667  H742  1.104 .      S
C667  H743  1.094 .      S
N223  C668  1.434 .      S
N223  H744  1.042 .      S
C668  C669  1.485 .      S
C668  H745  1.079 .      S
C668  H746  1.091 .      S
C671  H747  1.076 .      S
C672  H748  1.081 .      S
C673  H749  1.081 .      S
C674  H750  1.080 .      S
C676  N226  1.443 1_545  S
C676  H751  1.107 .      S
C676  H752  1.100 .      S
C676  H753  1.100 .      S
N226  C676  1.443 1_565  S
N226  C677  1.433 1_565  S
N226  H754  1.028 .      S
C677  N226  1.433 1_545  S
C677  C678  1.467 .      S
C677  H755  1.066 .      S
C677  H756  1.102 1_545  S
C680  H757  1.061 .      S
C681  H758  1.078 .      S
C682  H759  1.081 .      S
C683  H760  1.063 .      S
H756  C677  1.102 1_565  S
C685  N229  1.453 .      S
C685  H761  1.093 .      S
C685  H762  1.100 1_554  S
C685  H763  1.098 1_554  S
N229  C686  1.453 .      S
N229  H764  1.036 .      S
C686  C687  1.449 .      S
C686  H765  1.086 .      S
C686  H766  1.085 .      S
C689  H767  1.074 .      S
C690  H768  1.081 .      S
C691  H769  1.081 .      S
C692  H770  1.066 .      S
H762  C685  1.100 1_556  S
H763  C685  1.098 1_556  S
C694  N232  1.446 .      S
C694  H771  1.108 .      S
C694  H772  1.096 .      S
C694  H773  1.093 1_655  S
N232  C695  1.439 .      S
N232  H774  1.031 1_655  S
C695  C696  1.480 .      S
C695  H775  1.093 1_655  S
C695  H776  1.104 .      S
C698  H777  1.069 1_554  S
C699  H778  1.079 .      S
C700  H779  1.081 .      S
C701  H780  1.079 .      S
H773  C694  1.093 1_455  S
H774  N232  1.031 1_455  S
H775  C695  1.093 1_455  S
H777  C698  1.069 1_556  S
C703  N235  1.456 .      S
C703  H781  1.102 .      S
C703  H782  1.105 1_455  S
C703  H783  1.108 .      S
N235  C704  1.438 .      S
N235  H784  1.033 .      S
C704  C705  1.489 .      S
C704  H785  1.096 .      S
C704  H786  1.088 .      S
N236  Zn36  2.049 1_455  S
C707  H787  1.061 .      S
C708  H788  1.079 .      S
C709  H789  1.080 .      S
C710  H790  1.070 .      S
H782  C703  1.105 1_655  S
C712  N238  1.454 .      S
C712  H791  1.109 .      S
C712  H792  1.110 .      S
C712  H793  1.109 .      S
N238  C713  1.453 .      S
N238  H794  1.044 .      S
C713  C714  1.463 1_655  S
C713  H795  1.087 .      S
C713  H796  1.102 1_655  S
C714  C713  1.463 1_455  S
C716  H797  1.054 .      S
C717  H798  1.080 .      S
C718  H799  1.081 .      S
C719  H800  1.052 .      S
N240  Zn36  2.120 1_455  S
H796  C713  1.102 1_455  S
C721  N241  1.444 .      S
C721  H801  1.099 .      S
C721  H802  1.110 .      S
C721  H803  1.088 .      S
N241  C722  1.447 .      S
N241  H804  1.038 .      S
C722  C723  1.465 .      S
C722  H805  1.087 .      S
C722  H806  1.099 .      S
C725  H807  1.078 .      S
C726  H808  1.081 .      S
C727  H809  1.080 .      S
C728  H810  1.077 .      S
C730  N244  1.450 .      S
C730  H811  1.108 .      S
C730  H812  1.091 .      S
C730  H813  1.088 .      S
N244  C731  1.448 .      S
N244  H814  1.042 .      S
C731  C732  1.489 .      S
C731  H815  1.092 .      S
C731  H816  1.097 .      S
C734  H817  1.054 .      S
C735  H818  1.081 .      S
C736  H819  1.081 .      S
C737  H820  1.040 .      S
C739  N247  1.450 .      S
C739  H821  1.109 .      S
C739  H822  1.104 .      S
C739  H823  1.102 .      S
N247  C740  1.450 .      S
N247  H824  1.041 .      S
C740  C741  1.488 .      S
C740  H825  1.080 .      S
C740  H826  1.096 .      S
C743  H827  1.060 .      S
C744  H828  1.081 .      S
C745  H829  1.080 .      S
C746  H830  1.061 .      S
C748  N250  1.455 .      S
C748  H831  1.099 .      S
C748  H832  1.108 .      S
C748  H833  1.086 .      S
N250  C749  1.452 .      S
N250  H834  1.039 .      S
C749  C750  1.480 .      S
C749  H835  1.084 .      S
C749  H836  1.095 .      S
C752  H837  1.074 .      S
C753  H838  1.081 .      S
C754  H839  1.081 .      S
C755  H840  1.074 .      S
C757  N253  1.447 .      S
C757  H841  1.098 .      S
C757  H842  1.100 .      S
C757  H843  1.078 .      S
N253  C758  1.443 .      S
N253  H844  1.041 .      S
C758  C759  1.464 .      S
C758  H845  1.087 .      S
C758  H846  1.093 .      S
C761  H847  1.081 .      S
C762  H848  1.080 .      S
C763  H849  1.080 .      S
C764  H850  1.072 .      S
C766  N256  1.444 .      S
C766  H851  1.097 .      S
C766  H852  1.103 .      S
C766  H853  1.069 .      S
N256  C767  1.438 .      S
N256  H854  1.037 .      S
C767  C768  1.452 .      S
C767  H855  1.088 .      S
C767  H856  1.097 .      S
C770  H857  1.076 .      S
C771  H858  1.081 .      S
C772  H859  1.081 .      S
C773  H860  1.058 .      S
C775  N259  1.453 .      S
C775  H861  1.108 .      S
C775  H862  1.109 .      S
C775  H863  1.109 .      S
N259  C776  1.454 .      S
N259  H864  1.044 .      S
C776  C777  1.464 .      S
C776  H865  1.102 .      S
C776  H866  1.100 .      S
C779  H867  1.070 .      S
C780  H868  1.081 .      S
C781  H869  1.078 .      S
C782  H870  1.060 .      S
C784  N262  1.438 .      S
C784  H871  1.096 .      S
C784  H872  1.109 .      S
C784  H873  1.097 .      S
N262  C785  1.449 .      S
N262  H874  1.041 .      S
C785  C786  1.465 .      S
C785  H875  1.087 .      S
C785  H876  1.093 .      S
C788  H877  1.071 .      S
C789  H878  1.081 .      S
C790  H879  1.081 .      S
C791  H880  1.078 .      S
C793  N265  1.456 .      S
C793  H881  1.105 .      S
C793  H882  1.100 .      S
C793  H883  1.090 .      S
N265  C794  1.449 .      S
N265  H884  1.040 .      S
C794  C795  1.488 .      S
C794  H885  1.106 .      S
C794  H886  1.100 .      S
C797  H887  1.059 .      S
C798  H888  1.078 .      S
C799  H889  1.081 .      S
C800  H890  1.069 .      S
C802  N268  1.459 .      S
C802  H891  1.106 .      S
C802  H892  1.101 .      S
C802  H893  1.106 .      S
N268  C803  1.447 .      S
N268  H894  1.041 .      S
C803  C804  1.480 .      S
C803  H895  1.092 .      S
C803  H896  1.101 .      S
C806  H897  1.058 .      S
C807  H898  1.080 .      S
C808  H899  1.081 .      S
C809  H900  1.065 .      S
C811  N271  1.457 .      S
C811  H901  1.103 .      S
C811  H902  1.100 .      S
C811  H903  1.101 .      S
N271  C812  1.457 .      S
N271  H904  1.039 .      S
C812  C813  1.469 .      S
C812  H905  1.084 .      S
C812  H906  1.090 .      S
C815  H907  1.063 .      S
C816  H908  1.081 .      S
C817  H909  1.079 .      S
C818  H910  1.054 .      S
C820  N274  1.448 .      S
C820  H911  1.095 .      S
C820  H912  1.106 .      S
C820  H913  1.102 .      S
N274  C821  1.442 .      S
N274  H914  1.040 .      S
C821  C822  1.471 .      S
C821  H915  1.095 .      S
C821  H916  1.101 .      S
C824  H917  1.078 .      S
C825  H918  1.081 .      S
C826  H919  1.081 .      S
C827  H920  1.076 .      S
C829  N277  1.453 .      S
C829  H921  1.103 .      S
C829  H922  1.108 .      S
C829  H923  1.108 .      S
N277  C830  1.450 .      S
N277  H924  1.039 .      S
C830  C831  1.481 .      S
C830  H925  1.088 .      S
C830  H926  1.099 .      S
C833  H927  1.069 .      S
C834  H928  1.081 1_455  S
C835  H929  1.080 .      S
C836  H930  1.067 .      S
H928  C834  1.081 1_655  S
C838  N280  1.451 .      S
C838  H931  1.102 .      S
C838  H932  1.098 .      S
C838  H933  1.099 .      S
N280  C839  1.444 .      S
N280  H934  1.039 .      S
C839  C840  1.475 .      S
C839  H935  1.098 .      S
C839  H936  1.095 .      S
C842  H937  1.072 .      S
C843  H938  1.081 .      S
C844  H939  1.081 .      S
C845  H940  1.073 .      S
C847  N283  1.450 .      S
C847  H941  1.108 .      S
C847  H942  1.080 .      S
C847  H943  1.102 .      S
N283  C848  1.446 .      S
N283  H944  1.041 .      S
C848  C849  1.473 .      S
C848  H945  1.084 .      S
C848  H946  1.086 .      S
C851  H947  1.063 .      S
C852  H948  1.081 .      S
C853  H949  1.078 .      S
C854  H950  1.061 .      S
C856  N286  1.459 .      S
C856  H951  1.108 .      S
C856  H952  1.109 .      S
C856  H953  1.097 .      S
N286  C857  1.448 .      S
N286  H954  1.039 .      S
C857  C858  1.476 .      S
C857  H955  1.097 .      S
C857  H956  1.080 .      S
C860  H957  1.056 .      S
C861  H958  1.081 .      S
C862  H959  1.080 .      S
C863  H960  1.066 .      S
C3    N2    1.384 1_556  A
C3    N3    1.390 1_556  A
N2    C3    1.384 1_554  A
N2    C4    1.347 .      A
C4    C5    1.373 .      A
C4    C9    1.375 .      A
C5    C6    1.382 1_655  A
C6    C5    1.382 1_455  A
C6    C7    1.387 .      A
C7    C8    1.382 .      A
C8    C9    1.372 1_455  A
C9    C8    1.372 1_655  A
C9    N3    1.356 .      A
N3    C3    1.390 1_554  A
C12   N5    1.382 1_554  A
C12   N6    1.385 1_554  A
N5    C12   1.382 1_556  A
N5    C13   1.349 .      A
C13   C14   1.364 .      A
C13   C18   1.355 .      A
C14   C15   1.380 .      A
C15   C16   1.379 .      A
C16   C17   1.380 .      A
C17   C18   1.364 .      A
C18   N6    1.343 .      A
N6    C12   1.385 1_556  A
C21   N8    1.379 1_554  A
C21   N9    1.381 1_454  A
N8    C21   1.379 1_556  A
N8    C22   1.344 .      A
C22   C23   1.372 .      A
C22   C27   1.362 1_455  A
C23   C24   1.377 1_455  A
C24   C23   1.377 1_655  A
C24   C25   1.380 .      A
C25   C26   1.381 .      A
C26   C27   1.386 .      A
C27   C22   1.362 1_655  A
C27   N9    1.362 .      A
N9    C21   1.381 1_656  A
C30   N11   1.392 .      A
C30   N12   1.391 1_655  A
N11   C31   1.343 .      A
C31   C32   1.355 .      A
C31   C36   1.365 1_655  A
C32   C33   1.380 .      A
C33   C34   1.382 .      A
C34   C35   1.382 1_655  A
C35   C34   1.382 1_455  A
C35   C36   1.369 .      A
C36   C31   1.365 1_455  A
C36   N12   1.351 .      A
N12   C30   1.391 1_455  A
C39   N14   1.390 .      A
C39   N15   1.385 .      A
N14   C40   1.350 .      A
C40   C41   1.364 .      A
C40   C45   1.361 .      A
C41   C42   1.381 .      A
C42   C43   1.382 .      A
C43   C44   1.379 .      A
C44   C45   1.366 .      A
C45   N15   1.347 .      A
C48   N17   1.372 .      A
C48   N18   1.371 .      A
N17   C49   1.345 .      A
C49   C50   1.358 .      A
C49   C54   1.356 .      A
C50   C51   1.380 .      A
C51   C52   1.384 .      A
C52   C53   1.384 .      A
C53   C54   1.377 .      A
C54   N18   1.349 .      A
C57   N20   1.370 .      A
C57   N21   1.378 .      A
N20   C58   1.354 .      A
C58   C59   1.371 .      A
C58   C63   1.367 .      A
C59   C60   1.385 .      A
C60   C61   1.390 .      A
C61   C62   1.384 .      A
C62   C63   1.368 .      A
C63   N21   1.344 .      A
C66   N23   1.371 .      A
C66   N24   1.374 .      A
N23   C67   1.341 .      A
C67   C68   1.365 .      A
C67   C72   1.356 .      A
C68   C69   1.380 .      A
C69   C70   1.380 .      A
C70   C71   1.382 .      A
C71   C72   1.378 .      A
C72   N24   1.359 .      A
C75   N26   1.366 .      A
C75   N27   1.385 .      A
N26   C76   1.341 .      A
C76   C77   1.371 .      A
C76   C81   1.368 .      A
C77   C78   1.384 .      A
C78   C79   1.392 .      A
C79   C80   1.387 .      A
C80   C81   1.372 .      A
C81   N27   1.353 .      A
C84   N29   1.384 .      A
C84   N30   1.390 .      A
N29   C85   1.353 .      A
C85   C86   1.369 .      A
C85   C90   1.366 .      A
C86   C87   1.384 .      A
C87   C88   1.389 .      A
C88   C89   1.383 .      A
C89   C90   1.374 .      A
C90   N30   1.349 .      A
C93   N32   1.382 .      A
C93   N33   1.370 .      A
N32   C94   1.341 .      A
C94   C95   1.352 .      A
C94   C99   1.361 .      A
C95   C96   1.381 1_545  A
C96   C95   1.381 1_565  A
C96   C97   1.376 1_565  A
C97   C96   1.376 1_545  A
C97   C98   1.375 .      A
C98   C99   1.378 .      A
C99   N33   1.350 .      A
C102  N35   1.385 .      A
C102  N36   1.395 1_565  A
N35   C103  1.351 .      A
C103  C104  1.367 1_655  A
C103  C108  1.370 1_565  A
C104  C103  1.367 1_455  A
C104  C105  1.385 1_565  A
C105  C104  1.385 1_545  A
C105  C106  1.390 .      A
C106  C107  1.383 .      A
C107  C108  1.367 1_455  A
C108  C103  1.370 1_545  A
C108  C107  1.367 1_655  A
C108  N36   1.344 .      A
N36   C102  1.395 1_545  A
C111  N38   1.388 .      A
C111  N39   1.386 .      A
N38   C112  1.342 .      A
C112  C113  1.350 .      A
C112  C117  1.360 .      A
C113  C114  1.383 .      A
C114  C115  1.381 .      A
C115  C116  1.380 .      A
C116  C117  1.370 .      A
C117  N39   1.348 .      A
C120  N41   1.376 .      A
C120  N42   1.378 .      A
N41   C121  1.349 .      A
C121  C122  1.373 .      A
C121  C126  1.360 .      A
C122  C123  1.382 .      A
C123  C124  1.387 .      A
C124  C125  1.382 .      A
C125  C126  1.372 .      A
C126  N42   1.351 .      A
C129  N44   1.395 .      A
C129  N45   1.369 1_545  A
N44   C130  1.353 1_545  A
C130  N44   1.353 1_565  A
C130  C131  1.376 .      A
C130  C135  1.366 .      A
C131  C132  1.382 .      A
C132  C133  1.384 .      A
C133  C134  1.381 .      A
C134  C135  1.380 .      A
C135  N45   1.352 .      A
N45   C129  1.369 1_565  A
C138  N47   1.388 .      A
C138  N48   1.396 .      A
N47   C139  1.334 .      A
C139  C140  1.371 1_545  A
C139  C144  1.362 .      A
C140  C139  1.371 1_565  A
C140  C141  1.379 .      A
C141  C142  1.383 .      A
C142  C143  1.381 .      A
C143  C144  1.361 1_565  A
C144  C143  1.361 1_545  A
C144  N48   1.359 .      A
C147  N50   1.387 .      A
C147  N51   1.382 .      A
N50   C148  1.357 .      A
C148  C149  1.377 .      A
C148  C153  1.372 .      A
C149  C150  1.382 .      A
C150  C151  1.384 .      A
C151  C152  1.380 .      A
C152  C153  1.370 .      A
C153  N51   1.354 .      A
C156  N53   1.366 .      A
C156  N54   1.378 .      A
N53   C157  1.348 .      A
C157  C158  1.374 .      A
C157  C162  1.364 .      A
C158  C159  1.383 .      A
C159  C160  1.387 .      A
C160  C161  1.383 .      A
C161  C162  1.376 .      A
C162  N54   1.353 .      A
C165  N56   1.374 .      A
C165  N57   1.380 .      A
N56   C166  1.341 .      A
C166  C167  1.369 1_655  A
C166  C171  1.354 .      A
C167  C166  1.369 1_455  A
C167  C168  1.374 .      A
C168  C169  1.376 1_455  A
C169  C168  1.376 1_655  A
C169  C170  1.388 .      A
C170  C171  1.353 .      A
C171  N57   1.348 .      A
C174  N59   1.389 .      A
C174  N60   1.384 .      A
N59   C175  1.369 .      A
C175  C176  1.377 .      A
C175  C180  1.367 .      A
C176  C177  1.384 .      A
C177  C178  1.383 .      A
C178  C179  1.377 .      A
C179  C180  1.367 .      A
C180  N60   1.332 .      A
C183  N62   1.380 .      A
C183  N63   1.373 .      A
N62   C184  1.350 .      A
C184  C185  1.379 .      A
C184  C189  1.370 .      A
C185  C186  1.387 1_554  A
C186  C185  1.387 1_556  A
C186  C187  1.390 .      A
C187  C188  1.387 1_556  A
C188  C187  1.387 1_554  A
C188  C189  1.365 .      A
C189  N63   1.344 .      A
C192  N65   1.380 .      A
C192  N66   1.386 .      A
N65   C193  1.354 .      A
C193  C194  1.373 .      A
C193  C198  1.369 .      A
C194  C195  1.386 .      A
C195  C196  1.389 .      A
C196  C197  1.383 .      A
C197  C198  1.366 .      A
C198  N66   1.339 .      A
C201  N68   1.380 .      A
C201  N69   1.389 .      A
N68   C202  1.335 .      A
C202  C203  1.369 .      A
C202  C207  1.361 .      A
C203  C204  1.378 .      A
C204  C205  1.383 .      A
C205  C206  1.380 .      A
C206  C207  1.373 .      A
C207  N69   1.361 .      A
C210  N71   1.376 .      A
C210  N72   1.385 .      A
N71   C211  1.343 .      A
C211  C212  1.373 .      A
C211  C216  1.362 .      A
C212  C213  1.379 .      A
C213  C214  1.380 .      A
C214  C215  1.381 .      A
C215  C216  1.373 .      A
C216  N72   1.359 .      A
C219  N74   1.396 .      A
C219  N75   1.389 .      A
N74   C220  1.345 .      A
C220  C221  1.360 .      A
C220  C225  1.364 .      A
C221  C222  1.383 .      A
C222  C223  1.377 .      A
C223  C224  1.376 .      A
C224  C225  1.367 .      A
C225  N75   1.349 .      A
C228  N77   1.371 .      A
C228  N78   1.374 .      A
N77   C229  1.357 .      A
C229  C230  1.373 .      A
C229  C234  1.370 .      A
C230  C231  1.383 .      A
C231  C232  1.388 .      A
C232  C233  1.383 .      A
C233  C234  1.372 .      A
C234  N78   1.345 .      A
C237  N80   1.381 .      A
C237  N81   1.395 1_565  A
N80   C238  1.337 .      A
C238  C239  1.366 .      A
C238  C243  1.367 1_565  A
C239  C240  1.379 .      A
C240  C241  1.386 1_565  A
C241  C240  1.386 1_545  A
C241  C242  1.389 .      A
C242  C243  1.358 .      A
C243  C238  1.367 1_545  A
C243  N81   1.353 .      A
N81   C237  1.395 1_545  A
C246  N83   1.378 .      A
C246  N84   1.384 .      A
N83   C247  1.355 .      A
C247  C248  1.377 .      A
C247  C252  1.364 .      A
C248  C249  1.379 .      A
C249  C250  1.381 .      A
C250  C251  1.379 .      A
C251  C252  1.374 .      A
C252  N84   1.353 .      A
C255  N86   1.395 .      A
C255  N87   1.380 .      A
N86   C256  1.347 .      A
C256  C257  1.370 .      A
C256  C261  1.360 .      A
C257  C258  1.373 .      A
C258  C259  1.372 .      A
C259  C260  1.373 .      A
C260  C261  1.383 .      A
C261  N87   1.359 .      A
C264  N89   1.396 .      A
C264  N90   1.377 .      A
N89   C265  1.357 .      A
C265  C266  1.377 .      A
C265  C270  1.372 .      A
C266  C267  1.382 .      A
C267  C268  1.385 .      A
C268  C269  1.381 .      A
C269  C270  1.372 .      A
C270  N90   1.349 .      A
C273  N92   1.377 .      A
C273  N93   1.369 .      A
N92   C274  1.342 .      A
C274  C275  1.372 .      A
C274  C279  1.354 .      A
C275  C276  1.383 .      A
C276  C277  1.389 .      A
C277  C278  1.386 .      A
C278  C279  1.354 .      A
C279  N93   1.344 .      A
C282  N95   1.393 .      A
C282  N96   1.395 .      A
N95   C283  1.340 .      A
C283  C284  1.365 .      A
C283  C288  1.344 .      A
C284  C285  1.377 .      A
C285  C286  1.378 .      A
C286  C287  1.379 .      A
C287  C288  1.368 .      A
C288  N96   1.349 .      A
C291  N98   1.367 1_545  A
C291  N99   1.392 .      A
N98   C291  1.367 1_565  A
N98   C292  1.354 1_556  A
C292  N98   1.354 1_554  A
C292  C293  1.374 .      A
C292  C297  1.372 1_565  A
C293  C294  1.377 .      A
C294  C295  1.383 1_565  A
C295  C294  1.383 1_545  A
C295  C296  1.375 .      A
C296  C297  1.374 .      A
C297  C292  1.372 1_545  A
C297  N99   1.344 1_554  A
N99   C297  1.344 1_556  A
C300  N101  1.380 .      A
C300  N102  1.373 1_554  A
N101  C301  1.350 1_554  A
C301  N101  1.350 1_556  A
C301  C302  1.355 .      A
C301  C306  1.354 .      A
C302  C303  1.391 .      A
C303  C304  1.377 .      A
C304  C305  1.373 .      A
C305  C306  1.368 .      A
C306  N102  1.337 .      A
N102  C300  1.373 1_556  A
C309  N104  1.375 .      A
C309  N105  1.381 .      A
N104  C310  1.340 .      A
C310  C311  1.371 1_565  A
C310  C315  1.371 .      A
C311  C310  1.371 1_545  A
C311  C312  1.382 1_556  A
C312  C311  1.382 1_554  A
C312  C313  1.389 .      A
C313  C314  1.385 1_544  A
C314  C313  1.385 1_566  A
C314  C315  1.378 .      A
C315  N105  1.364 .      A
C318  N107  1.383 .      A
C318  N108  1.368 .      A
N107  C319  1.345 .      A
C319  C320  1.375 .      A
C319  C324  1.350 .      A
C320  C321  1.384 .      A
C321  C322  1.384 .      A
C322  C323  1.381 .      A
C323  C324  1.366 .      A
C324  N108  1.350 .      A
C327  N110  1.365 .      A
C327  N111  1.377 .      A
N110  C328  1.347 .      A
C328  C329  1.380 .      A
C328  C333  1.357 .      A
C329  C330  1.380 .      A
C330  C331  1.384 .      A
C331  C332  1.387 .      A
C332  C333  1.367 .      A
C333  N111  1.354 .      A
C336  N113  1.377 .      A
C336  N114  1.387 .      A
N113  C337  1.337 .      A
C337  C338  1.361 .      A
C337  C342  1.357 .      A
C338  C339  1.370 .      A
C339  C340  1.369 .      A
C340  C341  1.379 .      A
C341  C342  1.366 .      A
C342  N114  1.355 .      A
C345  N116  1.397 .      A
C345  N117  1.375 .      A
N116  C346  1.370 .      A
C346  C347  1.379 .      A
C346  C351  1.372 .      A
C347  C348  1.385 .      A
C348  C349  1.384 .      A
C349  C350  1.378 .      A
C350  C351  1.375 .      A
C351  N117  1.332 .      A
C354  N119  1.397 .      A
C354  N120  1.371 .      A
N119  C355  1.345 .      A
C355  C356  1.364 .      A
C355  C360  1.362 .      A
C356  C357  1.379 .      A
C357  C358  1.381 1_554  A
C358  C357  1.381 1_556  A
C358  C359  1.384 .      A
C359  C360  1.351 1_556  A
C360  C359  1.351 1_554  A
C360  N120  1.344 .      A
C363  N122  1.380 .      A
C363  N123  1.384 .      A
N122  C364  1.366 .      A
C364  C365  1.383 .      A
C364  C369  1.375 .      A
C365  C366  1.385 .      A
C366  C367  1.386 1_655  A
C367  C366  1.386 1_455  A
C367  C368  1.380 1_455  A
C368  C367  1.380 1_655  A
C368  C369  1.373 .      A
C369  N123  1.343 .      A
C372  N125  1.392 .      A
C372  N126  1.390 1_455  A
N125  C373  1.330 1_455  A
C373  N125  1.330 1_655  A
C373  C374  1.364 .      A
C373  C378  1.363 .      A
C374  C375  1.375 .      A
C375  C376  1.379 .      A
C376  C377  1.381 .      A
C377  C378  1.355 .      A
C378  N126  1.357 .      A
N126  C372  1.390 1_655  A
C381  N128  1.377 1_455  A
C381  N129  1.375 .      A
N128  C381  1.377 1_655  A
N128  C382  1.352 .      A
C382  C383  1.376 .      A
C382  C387  1.366 1_655  A
C383  C384  1.382 .      A
C384  C385  1.384 .      A
C385  C386  1.382 1_655  A
C386  C385  1.382 1_455  A
C386  C387  1.374 .      A
C387  C382  1.366 1_455  A
C387  N129  1.351 .      A
C390  N131  1.385 .      A
C390  N132  1.371 .      A
N131  C391  1.353 .      A
C391  C392  1.368 .      A
C391  C396  1.356 .      A
C392  C393  1.382 .      A
C393  C394  1.384 .      A
C394  C395  1.380 .      A
C395  C396  1.374 .      A
C396  N132  1.347 .      A
C399  N134  1.374 .      A
C399  N135  1.374 .      A
N134  C400  1.347 .      A
C400  C401  1.365 1_545  A
C400  C405  1.367 .      A
C401  C400  1.365 1_565  A
C401  C402  1.380 .      A
C402  C403  1.388 .      A
C403  C404  1.386 .      A
C404  C405  1.373 1_565  A
C405  C404  1.373 1_545  A
C405  N135  1.347 .      A
C408  N137  1.383 .      A
C408  N138  1.363 1_545  A
N137  C409  1.340 1_545  A
C409  N137  1.340 1_565  A
C409  C410  1.368 .      A
C409  C414  1.354 .      A
C410  C411  1.376 .      A
C411  C412  1.380 .      A
C412  C413  1.385 .      A
C413  C414  1.364 .      A
C414  N138  1.355 .      A
N138  C408  1.363 1_565  A
C417  N140  1.386 1_556  A
C417  N141  1.389 1_556  A
N140  C417  1.386 1_554  A
N140  C418  1.346 .      A
C418  C419  1.376 .      A
C418  C423  1.367 .      A
C419  C420  1.384 .      A
C420  C421  1.388 .      A
C421  C422  1.385 .      A
C422  C423  1.372 .      A
C423  N141  1.353 .      A
N141  C417  1.389 1_554  A
C426  N143  1.389 .      A
C426  N144  1.371 .      A
N143  C427  1.343 .      A
C427  C428  1.373 .      A
C427  C432  1.363 .      A
C428  C429  1.382 .      A
C429  C430  1.388 .      A
C430  C431  1.384 .      A
C431  C432  1.369 .      A
C432  N144  1.354 .      A
C435  N146  1.376 .      A
C435  N147  1.380 .      A
N146  C436  1.363 .      A
C436  C437  1.378 .      A
C436  C441  1.364 .      A
C437  C438  1.385 .      A
C438  C439  1.387 .      A
C439  C440  1.380 .      A
C440  C441  1.368 .      A
C441  N147  1.337 .      A
C444  N149  1.395 .      A
C444  N150  1.393 .      A
N149  C445  1.336 .      A
C445  C446  1.382 .      A
C445  C450  1.327 .      A
C446  C447  1.361 .      A
C447  C448  1.350 .      A
C448  C449  1.375 .      A
C449  C450  1.347 .      A
C450  N150  1.355 .      A
C453  N152  1.373 .      A
C453  N153  1.374 .      A
N152  C454  1.347 .      A
C454  C455  1.375 .      A
C454  C459  1.368 .      A
C455  C456  1.363 .      A
C456  C457  1.366 .      A
C457  C458  1.385 .      A
C458  C459  1.369 .      A
C459  N153  1.347 .      A
C462  N155  1.375 .      A
C462  N156  1.382 .      A
N155  C463  1.366 .      A
C463  C464  1.377 .      A
C463  C468  1.368 .      A
C464  C465  1.384 .      A
C465  C466  1.386 .      A
C466  C467  1.380 .      A
C467  C468  1.372 .      A
C468  N156  1.338 .      A
C471  N158  1.381 .      A
C471  N159  1.380 .      A
N158  C472  1.343 .      A
C472  C473  1.375 .      A
C472  C477  1.371 .      A
C473  C474  1.382 .      A
C474  C475  1.386 .      A
C475  C476  1.385 .      A
C476  C477  1.378 .      A
C477  N159  1.361 .      A
C480  N161  1.389 .      A
C480  N162  1.379 .      A
N161  C481  1.358 .      A
C481  C482  1.365 .      A
C481  C486  1.365 .      A
C482  C483  1.385 .      A
C483  C484  1.389 .      A
C484  C485  1.381 .      A
C485  C486  1.372 .      A
C486  N162  1.338 .      A
C489  N164  1.378 .      A
C489  N165  1.372 .      A
N164  C490  1.347 .      A
C490  C491  1.375 .      A
C490  C495  1.361 .      A
C491  C492  1.383 .      A
C492  C493  1.389 .      A
C493  C494  1.385 .      A
C494  C495  1.377 .      A
C495  N165  1.355 .      A
C498  N167  1.386 .      A
C498  N168  1.383 .      A
N167  C499  1.335 .      A
C499  C500  1.354 .      A
C499  C504  1.346 .      A
C500  C501  1.377 .      A
C501  C502  1.373 .      A
C502  C503  1.379 .      A
C503  C504  1.347 .      A
C504  N168  1.346 .      A
C507  N170  1.386 .      A
C507  N171  1.369 .      A
N170  C508  1.373 .      A
C508  C509  1.385 .      A
C508  C513  1.367 .      A
C509  C510  1.385 .      A
C510  C511  1.386 .      A
C511  C512  1.379 .      A
C512  C513  1.370 .      A
C513  N171  1.334 .      A
C516  N173  1.386 .      A
C516  N174  1.379 .      A
N173  C517  1.352 .      A
C517  C518  1.361 .      A
C517  C522  1.362 .      A
C518  C519  1.381 .      A
C519  C520  1.384 .      A
C520  C521  1.380 .      A
C521  C522  1.375 .      A
C522  N174  1.344 .      A
C525  N176  1.383 .      A
C525  N177  1.372 .      A
N176  C526  1.346 .      A
C526  C527  1.371 .      A
C526  C531  1.361 .      A
C527  C528  1.382 .      A
C528  C529  1.382 .      A
C529  C530  1.378 .      A
C530  C531  1.363 .      A
C531  N177  1.342 .      A
C534  N179  1.366 .      A
C534  N180  1.368 .      A
N179  C535  1.365 .      A
C535  C536  1.379 .      A
C535  C540  1.363 .      A
C536  C537  1.384 .      A
C537  C538  1.386 .      A
C538  C539  1.379 .      A
C539  C540  1.375 .      A
C540  N180  1.338 .      A
C543  N182  1.374 .      A
C543  N183  1.385 .      A
N182  C544  1.352 .      A
C544  C545  1.380 .      A
C544  C549  1.364 .      A
C545  C546  1.380 .      A
C546  C547  1.381 .      A
C547  C548  1.380 .      A
C548  C549  1.364 .      A
C549  N183  1.350 .      A
C552  N185  1.366 .      A
C552  N186  1.385 .      A
N185  C553  1.341 .      A
C553  C554  1.367 .      A
C553  C558  1.360 .      A
C554  C555  1.379 .      A
C555  C556  1.383 .      A
C556  C557  1.382 .      A
C557  C558  1.373 .      A
C558  N186  1.358 .      A
C561  N188  1.372 .      A
C561  N189  1.380 .      A
N188  C562  1.350 .      A
C562  C563  1.385 .      A
C562  C567  1.360 .      A
C563  C564  1.372 .      A
C564  C565  1.368 .      A
C565  C566  1.376 .      A
C566  C567  1.379 .      A
C567  N189  1.368 .      A
C570  N191  1.374 .      A
C570  N192  1.374 .      A
N191  C571  1.345 .      A
C571  C572  1.366 .      A
C571  C576  1.356 .      A
C572  C573  1.377 .      A
C573  C574  1.377 .      A
C574  C575  1.378 .      A
C575  C576  1.378 .      A
C576  N192  1.358 .      A
C579  N194  1.381 .      A
C579  N195  1.368 .      A
N194  C580  1.347 .      A
C580  C581  1.367 .      A
C580  C585  1.359 .      A
C581  C582  1.381 .      A
C582  C583  1.382 .      A
C583  C584  1.379 .      A
C584  C585  1.370 .      A
C585  N195  1.352 .      A
C588  N197  1.368 .      A
C588  N198  1.391 .      A
N197  C589  1.354 .      A
C589  C590  1.378 .      A
C589  C594  1.365 .      A
C590  C591  1.381 .      A
C591  C592  1.379 .      A
C592  C593  1.377 .      A
C593  C594  1.368 .      A
C594  N198  1.347 .      A
C597  N200  1.385 .      A
C597  N201  1.387 .      A
N200  C598  1.346 .      A
C598  C599  1.373 .      A
C598  C603  1.365 .      A
C599  C600  1.383 .      A
C600  C601  1.389 .      A
C601  C602  1.384 .      A
C602  C603  1.374 .      A
C603  N201  1.357 .      A
C606  N203  1.378 .      A
C606  N204  1.372 .      A
N203  C607  1.365 .      A
C607  C608  1.381 .      A
C607  C612  1.365 .      A
C608  C609  1.384 .      A
C609  C610  1.383 .      A
C610  C611  1.377 .      A
C611  C612  1.369 .      A
C612  N204  1.344 .      A
C615  N206  1.385 .      A
C615  N207  1.390 1_455  A
N206  C616  1.341 .      A
C616  C617  1.354 .      A
C616  C621  1.363 .      A
C617  C618  1.383 .      A
C618  C619  1.382 .      A
C619  C620  1.380 1_455  A
C620  C619  1.380 1_655  A
C620  C621  1.366 1_655  A
C621  C620  1.366 1_455  A
C621  N207  1.350 1_455  A
N207  C615  1.390 1_655  A
N207  C621  1.350 1_655  A
C624  N209  1.383 .      A
C624  N210  1.365 .      A
N209  C625  1.364 .      A
C625  C626  1.377 1_455  A
C625  C630  1.364 .      A
C626  C625  1.377 1_655  A
C626  C627  1.381 1_655  A
C627  C626  1.381 1_455  A
C627  C628  1.385 .      A
C628  C629  1.380 .      A
C629  C630  1.378 .      A
C630  N210  1.344 .      A
C633  N212  1.369 .      A
C633  N213  1.374 .      A
N212  C634  1.355 .      A
C634  C635  1.365 .      A
C634  C639  1.352 .      A
C635  C636  1.379 .      A
C636  C637  1.379 .      A
C637  C638  1.379 .      A
C638  C639  1.371 .      A
C639  N213  1.345 .      A
C642  N215  1.379 .      A
C642  N216  1.378 .      A
N215  C643  1.343 .      A
C643  C644  1.374 .      A
C643  C648  1.372 .      A
C644  C645  1.378 .      A
C645  C646  1.383 .      A
C646  C647  1.384 .      A
C647  C648  1.387 .      A
C648  N216  1.369 .      A
C651  N218  1.380 .      A
C651  N219  1.387 .      A
N218  C652  1.333 .      A
C652  C653  1.369 .      A
C652  C657  1.360 .      A
C653  C654  1.372 .      A
C654  C655  1.376 1_554  A
C655  C654  1.376 1_556  A
C655  C656  1.390 .      A
C656  C657  1.355 1_556  A
C657  C656  1.355 1_554  A
C657  N219  1.357 .      A
C660  N221  1.369 .      A
C660  N222  1.380 .      A
N221  C661  1.352 .      A
C661  C662  1.372 .      A
C661  C666  1.365 .      A
C662  C663  1.382 1_565  A
C663  C662  1.382 1_545  A
C663  C664  1.387 .      A
C664  C665  1.381 .      A
C665  C666  1.375 1_545  A
C666  C665  1.375 1_565  A
C666  N222  1.352 .      A
C669  N224  1.373 .      A
C669  N225  1.387 .      A
N224  C670  1.353 .      A
C670  C671  1.373 .      A
C670  C675  1.363 .      A
C671  C672  1.383 .      A
C672  C673  1.389 .      A
C673  C674  1.381 .      A
C674  C675  1.373 .      A
C675  N225  1.348 .      A
C678  N227  1.375 1_545  A
C678  N228  1.377 .      A
N227  C678  1.375 1_565  A
N227  C679  1.355 .      A
C679  C680  1.380 .      A
C679  C684  1.357 1_565  A
C680  C681  1.380 .      A
C681  C682  1.381 1_565  A
C682  C681  1.381 1_545  A
C682  C683  1.374 .      A
C683  C684  1.365 .      A
C684  C679  1.357 1_545  A
C684  N228  1.342 .      A
C687  N230  1.369 .      A
C687  N231  1.378 .      A
N230  C688  1.339 .      A
C688  C689  1.369 .      A
C688  C693  1.366 .      A
C689  C690  1.379 .      A
C690  C691  1.384 .      A
C691  C692  1.384 .      A
C692  C693  1.373 .      A
C693  N231  1.362 .      A
C696  N233  1.377 .      A
C696  N234  1.371 .      A
N233  C697  1.352 .      A
C697  C698  1.371 .      A
C697  C702  1.362 .      A
C698  C699  1.384 1_554  A
C699  C698  1.384 1_556  A
C699  C700  1.381 .      A
C700  C701  1.379 1_556  A
C701  C700  1.379 1_554  A
C701  C702  1.380 .      A
C702  N234  1.349 .      A
C705  N236  1.392 .      A
C705  N237  1.383 .      A
N236  C706  1.340 .      A
C706  C707  1.355 .      A
C706  C711  1.319 .      A
C707  C708  1.384 .      A
C708  C709  1.377 .      A
C709  C710  1.377 .      A
C710  C711  1.374 .      A
C711  N237  1.337 .      A
C714  N239  1.378 .      A
C714  N240  1.379 .      A
N239  C715  1.343 .      A
C715  C716  1.351 .      A
C715  C720  1.358 .      A
C716  C717  1.376 .      A
C717  C718  1.372 .      A
C718  C719  1.377 .      A
C719  C720  1.385 .      A
C720  N240  1.363 .      A
C723  N242  1.376 .      A
C723  N243  1.372 .      A
N242  C724  1.353 .      A
C724  C725  1.378 .      A
C724  C729  1.369 .      A
C725  C726  1.385 .      A
C726  C727  1.386 .      A
C727  C728  1.382 .      A
C728  C729  1.379 .      A
C729  N243  1.352 .      A
C732  N245  1.390 .      A
C732  N246  1.390 .      A
N245  C733  1.349 .      A
C733  C734  1.378 .      A
C733  C738  1.362 .      A
C734  C735  1.376 .      A
C735  C736  1.374 .      A
C736  C737  1.376 .      A
C737  C738  1.362 .      A
C738  N246  1.354 .      A
C741  N248  1.380 .      A
C741  N249  1.386 .      A
N248  C742  1.338 .      A
C742  C743  1.363 .      A
C742  C747  1.357 .      A
C743  C744  1.375 .      A
C744  C745  1.377 .      A
C745  C746  1.386 .      A
C746  C747  1.361 .      A
C747  N249  1.352 .      A
C750  N251  1.379 .      A
C750  N252  1.380 .      A
N251  C751  1.345 .      A
C751  C752  1.373 .      A
C751  C756  1.365 .      A
C752  C753  1.378 .      A
C753  C754  1.382 .      A
C754  C755  1.382 .      A
C755  C756  1.379 .      A
C756  N252  1.364 .      A
C759  N254  1.371 .      A
C759  N255  1.373 .      A
N254  C760  1.351 .      A
C760  C761  1.378 .      A
C760  C765  1.367 .      A
C761  C762  1.382 .      A
C762  C763  1.387 .      A
C763  C764  1.382 .      A
C764  C765  1.375 .      A
C765  N255  1.354 .      A
C768  N257  1.380 .      A
C768  N258  1.377 .      A
N257  C769  1.344 .      A
C769  C770  1.374 .      A
C769  C774  1.371 .      A
C770  C771  1.378 .      A
C771  C772  1.383 .      A
C772  C773  1.383 .      A
C773  C774  1.370 .      A
C774  N258  1.360 .      A
C777  N260  1.368 .      A
C777  N261  1.382 .      A
N260  C778  1.356 .      A
C778  C779  1.377 .      A
C778  C783  1.365 .      A
C779  C780  1.377 .      A
C780  C781  1.375 .      A
C781  C782  1.374 .      A
C782  C783  1.379 .      A
C783  N261  1.358 .      A
C786  N263  1.373 .      A
C786  N264  1.376 .      A
N263  C787  1.355 .      A
C787  C788  1.374 .      A
C787  C792  1.370 .      A
C788  C789  1.386 .      A
C789  C790  1.388 .      A
C790  C791  1.382 .      A
C791  C792  1.374 .      A
C792  N264  1.347 .      A
C795  N266  1.389 .      A
C795  N267  1.377 .      A
N266  C796  1.353 .      A
C796  C797  1.365 .      A
C796  C801  1.361 .      A
C797  C798  1.382 .      A
C798  C799  1.381 .      A
C799  C800  1.379 .      A
C800  C801  1.365 .      A
C801  N267  1.342 .      A
C804  N269  1.389 .      A
C804  N270  1.386 1_554  A
N269  C805  1.352 .      A
C805  C806  1.357 1_554  A
C805  C810  1.348 1_554  A
C806  C805  1.357 1_556  A
C806  C807  1.388 .      A
C807  C808  1.385 .      A
C808  C809  1.379 .      A
C809  C810  1.359 .      A
C810  C805  1.348 1_556  A
C810  N270  1.330 .      A
N270  C804  1.386 1_556  A
C813  N272  1.382 .      A
C813  N273  1.381 .      A
N272  C814  1.342 1_556  A
C814  N272  1.342 1_554  A
C814  C815  1.371 .      A
C814  C819  1.359 .      A
C815  C816  1.378 .      A
C816  C817  1.380 .      A
C817  C818  1.383 .      A
C818  C819  1.349 .      A
C819  N273  1.343 1_554  A
N273  C819  1.343 1_556  A
C822  N275  1.366 .      A
C822  N276  1.383 .      A
N275  C823  1.329 .      A
C823  C824  1.372 1_556  A
C823  C828  1.371 .      A
C824  C823  1.372 1_554  A
C824  C825  1.379 .      A
C825  C826  1.387 .      A
C826  C827  1.388 1_554  A
C827  C826  1.388 1_556  A
C827  C828  1.389 .      A
C828  N276  1.380 .      A
C831  N278  1.380 .      A
C831  N279  1.384 .      A
N278  C832  1.348 .      A
C832  C833  1.372 .      A
C832  C837  1.371 .      A
C833  C834  1.381 .      A
C834  C835  1.385 .      A
C835  C836  1.384 .      A
C836  C837  1.375 .      A
C837  N279  1.356 .      A
C840  N281  1.381 .      A
C840  N282  1.372 .      A
N281  C841  1.346 .      A
C841  C842  1.370 .      A
C841  C846  1.365 .      A
C842  C843  1.382 .      A
C843  C844  1.386 .      A
C844  C845  1.383 .      A
C845  C846  1.379 .      A
C846  N282  1.359 .      A
C849  N284  1.386 .      A
C849  N285  1.377 .      A
N284  C850  1.344 .      A
C850  C851  1.375 .      A
C850  C855  1.358 .      A
C851  C852  1.374 .      A
C852  C853  1.375 .      A
C853  C854  1.384 .      A
C854  C855  1.353 .      A
C855  N285  1.344 .      A
C858  N287  1.390 .      A
C858  N288  1.392 .      A
N287  C859  1.349 .      A
C859  C860  1.363 .      A
C859  C864  1.360 .      A
C860  C861  1.382 .      A
C861  C862  1.384 .      A
C862  C863  1.382 .      A
C863  C864  1.354 .      A
C864  N288  1.339 .      A
