data_str_m1_o12004_PSI
_audit_creation_date              2015-10-01T06:32:22-0700
_symmetry_space_group_name_H-M    P1
_symmetry_Int_Tables_number       1
_space_group_crystal_system       triclinic
loop_
_symmetry_equiv_pos_as_xyz
  x,y,z
_cell_length_a                    24.8164711
_cell_length_b                    17.4601229
_cell_length_c                    79.7331603
_cell_angle_alpha                 89.8095273
_cell_angle_beta                  86.8216885
_cell_angle_gamma                 110.333894
_cell_volume                      32336.0967336

loop_
_atom_site_label
_atom_site_type_symbol
_atom_site_description
_atom_site_fract_x
_atom_site_fract_y
_atom_site_fract_z
_atom_type_partial_charge
Zn1   Zn    Zn3+2 0.559477 0.300189 0.706128 0.000000
Zn2   Zn    Zn3+2 0.813855 0.930026 0.703479 0.000000
Zn3   Zn    Zn3+2 0.554182 0.932133 0.702858 0.000000
Zn4   Zn    Zn3+2 0.504464 0.757191 0.210176 0.000000
Zn5   Zn    Zn3+2 0.791709 0.426297 0.918031 0.000000
Zn6   Zn    Zn3+2 0.282930 0.307958 0.415581 0.000000
Zn7   Zn    Zn3+2 0.784133 0.041903 0.917660 0.000000
Zn8   Zn    Zn3+2 0.284216 0.680538 0.416435 0.000000
Zn9   Zn    Zn3+2 0.260369 0.794872 0.069745 0.000000
Zn10  Zn    Zn3+2 0.503784 0.888382 0.285362 0.000000
Zn11  Zn    Zn3+2 0.534936 0.282288 0.578907 0.000000
Zn12  Zn    Zn3+2 0.537308 0.422077 0.912399 0.000000
Zn13  Zn    Zn3+2 0.541092 0.321404 0.405379 0.000000
Zn14  Zn    Zn3+2 0.532304 0.780622 0.907718 0.000000
Zn15  Zn    Zn3+2 0.926965 0.480291 0.633825 0.000000
Zn16  Zn    Zn3+2 0.933317 0.619437 0.848817 0.000000
Zn17  Zn    Zn3+2 0.246179 0.757645 0.205056 0.000000
Zn18  Zn    Zn3+2 0.908264 0.510941 0.496622 0.000000
Zn19  Zn    Zn3+2 0.910517 0.607800 0.984363 0.000000
Zn20  Zn    Zn3+2 0.166463 0.117995 0.485296 0.000000
Zn21  Zn    Zn3+2 0.902027 0.981703 0.986567 0.000000
Zn22  Zn    Zn3+2 0.426132 0.230238 0.845327 0.000000
Zn23  Zn    Zn3+2 0.665940 0.499950 0.336365 0.000000
Zn24  Zn    Zn3+2 0.647836 0.320600 0.142026 0.000000
Zn25  Zn    Zn3+2 0.404560 0.339742 0.646556 0.000000
Zn26  Zn    Zn3+2 0.557829 0.436566 0.779145 0.000000
Zn27  Zn    Zn3+2 0.515939 0.266209 0.280478 0.000000
Zn28  Zn    Zn3+2 0.809723 0.059572 0.778818 0.000000
Zn29  Zn    Zn3+2 0.559474 0.803809 0.773994 0.000000
Zn30  Zn    Zn3+2 0.175962 0.754263 0.486235 0.000000
Zn31  Zn    Zn3+2 0.248496 0.643572 0.280737 0.000000
Zn32  Zn    Zn3+2 0.259312 0.141671 0.202106 0.000000
Zn33  Zn    Zn3+2 0.429839 0.847677 0.839124 0.000000
Zn34  Zn    Zn3+2 0.528980 0.409592 0.078716 0.000000
Zn35  Zn    Zn3+2 0.132864 0.211346 0.138543 0.000000
Zn36  Zn    Zn3+2 0.271233 0.173164 0.068415 0.000000
Zn37  Zn    Zn3+2 0.254295 0.263978 0.278951 0.000000
Zn38  Zn    Zn3+2 0.514930 0.387544 0.205559 0.000000
Zn39  Zn    Zn3+2 0.152513 0.247444 0.002972 0.000000
Zn40  Zn    Zn3+2 0.888923 0.954654 0.121901 0.000000
Zn41  Zn    Zn3+2 0.767307 0.032211 0.055359 0.000000
Zn42  Zn    Zn3+2 0.644061 0.957363 0.145427 0.000000
Zn43  Zn    Zn3+2 0.149335 0.743177 0.351544 0.000000
Zn44  Zn    Zn3+2 0.818730 0.549603 0.705585 0.000000
Zn45  Zn    Zn3+2 0.813934 0.433855 0.780778 0.000000
Zn46  Zn    Zn3+2 0.537494 0.912666 0.577056 0.000000
Zn47  Zn    Zn3+2 0.520036 0.785866 0.080465 0.000000
Zn48  Zn    Zn3+2 0.542069 0.948888 0.407402 0.000000
Zn49  Zn    Zn3+2 0.794195 0.544574 0.568087 0.000000
Zn50  Zn    Zn3+2 0.167534 0.618178 0.000212 0.000000
Zn51  Zn    Zn3+2 0.930594 0.101344 0.632752 0.000000
Zn52  Zn    Zn3+2 0.290579 0.817741 0.933435 0.000000
Zn53  Zn    Zn3+2 0.302951 0.670832 0.547551 0.000000
Zn54  Zn    Zn3+2 0.290375 0.182284 0.937509 0.000000
Zn55  Zn    Zn3+2 0.776874 0.947891 0.437213 0.000000
Zn56  Zn    Zn3+2 0.766839 0.403541 0.048579 0.000000
Zn57  Zn    Zn3+2 0.768836 0.573679 0.435942 0.000000
Zn58  Zn    Zn3+2 0.407717 0.717066 0.645369 0.000000
Zn59  Zn    Zn3+2 0.301770 0.297059 0.547715 0.000000
Zn60  Zn    Zn3+2 0.897916 0.137844 0.370839 0.000000
Zn61  Zn    Zn3+2 0.147275 0.120857 0.351357 0.000000
Zn62  Zn    Zn3+2 0.121172 0.589667 0.137266 0.000000
Zn63  Zn    Zn3+2 0.905005 0.133358 0.500779 0.000000
Zn64  Zn    Zn3+2 0.182789 0.101254 0.615165 0.000000
Zn65  Zn    Zn3+2 0.880738 0.589290 0.115552 0.000000
Zn66  Zn    Zn3+2 0.893287 0.508787 0.369742 0.000000
Zn67  Zn    Zn3+2 0.177172 0.243351 0.870552 0.000000
Zn68  Zn    Zn3+2 0.677061 0.873435 0.341287 0.000000
Zn69  Zn    Zn3+2 0.929614 0.996397 0.848253 0.000000
Zn70  Zn    Zn3+2 0.178288 0.621258 0.868970 0.000000
Zn71  Zn    Zn3+2 0.181241 0.724161 0.615557 0.000000
Zn72  Zn    Zn3+2 0.795346 0.921673 0.567895 0.000000
C1    C     C_3   0.551438 0.493737 0.713724 0.000000
N1    N     N_3   0.603142 0.483674 0.719132 0.000000
C2    C     C_3   0.598498 0.466984 0.737007 0.000000
C3    C     C_R   0.562376 0.381973 0.742140 0.000000
N2    N     N_R   0.542023 0.316814 0.731562 0.000000
C4    C     C_R   0.507407 0.257973 0.742327 0.000000
C5    C     C_R   0.461858 0.191012 0.738490 0.000000
C6    C     C_R   0.426866 0.142488 0.751333 0.000000
C7    C     C_R   0.439221 0.160106 0.767849 0.000000
C8    C     C_R   0.481399 0.232607 0.771501 0.000000
C9    C     C_R   0.511289 0.283860 0.758390 0.000000
N3    N     N_R   0.544603 0.363178 0.758746 0.000000
H1    H     H_    0.552185 0.494738 0.699808 0.000000
H2    H     H_    0.514169 0.443756 0.718887 0.000000
H3    H     H_    0.548288 0.550723 0.718480 0.000000
H4    H     H_    0.635842 0.540075 0.717264 0.000000
H5    H     H_    0.640411 0.475796 0.741474 0.000000
H6    H     H_    0.585503 0.512926 0.743455 0.000000
H7    H     H_    0.447825 0.185185 0.726062 0.000000
H8    H     H_    0.388977 0.091941 0.748485 0.000000
H9    H     H_    0.413494 0.120004 0.777897 0.000000
H10   H     H_    0.491172 0.245812 0.784289 0.000000
C10   C     C_3   0.376105 0.006495 0.697409 0.000000
N4    N     N_3   0.437583 0.026475 0.693583 0.000000
C11   C     C_3   0.467621 0.088970 0.704969 0.000000
C12   C     C_R   0.530868 0.106856 0.703474 0.000000
N5    N     N_R   0.555558 0.049885 0.698376 0.000000
C13   C     C_R   0.604739 0.097003 0.690608 0.000000
C14   C     C_R   0.641154 0.071607 0.680585 0.000000
C15   C     C_R   0.694923 0.126581 0.676882 0.000000
C16   C     C_R   0.709343 0.204261 0.682494 0.000000
C17   C     C_R   0.667616 0.232420 0.688754 0.000000
C18   C     C_R   0.614097 0.176920 0.693102 0.000000
N6    N     N_R   0.567538 0.186863 0.701136 0.000000
H11   H     H_    0.351939 0.971558 0.686975 0.000000
H12   H     H_    0.362424 0.968705 0.709121 0.000000
H13   H     H_    0.365886 0.063174 0.698879 0.000000
H14   H     H_    0.446407 0.054534 0.681738 0.000000
H15   H     H_    0.460732 0.145820 0.701223 0.000000
H16   H     H_    0.450350 0.070194 0.717859 0.000000
H17   H     H_    0.629801 0.010447 0.676318 0.000000
H18   H     H_    0.727414 0.108067 0.671041 0.000000
H19   H     H_    0.753456 0.244423 0.681234 0.000000
H20   H     H_    0.681386 0.294634 0.691259 0.000000
C19   C     C_3   0.727394 0.790908 0.733631 0.000000
N7    N     N_3   0.756549 0.849965 0.745830 0.000000
C20   C     C_3   0.750855 0.927831 0.742458 0.000000
C21   C     C_R   0.807692 0.991543 0.740637 0.000000
N8    N     N_R   0.837183 0.002652 0.725184 0.000000
C22   C     C_R   0.887640 0.060892 0.728378 0.000000
C23   C     C_R   0.934569 0.095742 0.717373 0.000000
C24   C     C_R   0.985545 0.144024 0.723818 0.000000
C25   C     C_R   0.989344 0.152857 0.741022 0.000000
C26   C     C_R   0.941233 0.118544 0.751835 0.000000
C27   C     C_R   0.889422 0.077839 0.745180 0.000000
N9    N     N_R   0.837713 0.039039 0.753465 0.000000
H21   H     H_    0.683917 0.754145 0.738864 0.000000
H22   H     H_    0.726089 0.817116 0.721177 0.000000
H23   H     H_    0.752397 0.751506 0.731100 0.000000
H24   H     H_    0.799974 0.858018 0.744777 0.000000
H25   H     H_    0.732445 0.926537 0.730576 0.000000
H26   H     H_    0.722297 0.941567 0.751658 0.000000
H27   H     H_    0.932034 0.087217 0.704084 0.000000
H28   H     H_    0.023315 0.171763 0.715487 0.000000
H29   H     H_    0.030437 0.185565 0.746046 0.000000
H30   H     H_    0.946012 0.117443 0.765013 0.000000
C28   C     C_3   0.799465 0.161372 0.711097 0.000000
N10   N     N_3   0.767001 0.089525 0.702232 0.000000
C29   C     C_3   0.713512 0.041068 0.711646 0.000000
C30   C     C_R   0.691681 0.958218 0.704051 0.000000
N11   N     N_R   0.636521 0.922232 0.698442 0.000000
C31   C     C_R   0.644554 0.867359 0.687624 0.000000
C32   C     C_R   0.604858 0.808474 0.679141 0.000000
C33   C     C_R   0.624072 0.766469 0.667185 0.000000
C34   C     C_R   0.682258 0.784068 0.663806 0.000000
C35   C     C_R   0.720878 0.834144 0.674383 0.000000
C36   C     C_R   0.699837 0.870334 0.686928 0.000000
N12   N     N_R   0.729834 0.920755 0.698354 0.000000
H31   H     H_    0.794659 0.215823 0.705293 0.000000
H32   H     H_    0.786675 0.155367 0.724660 0.000000
H33   H     H_    0.845563 0.168886 0.709372 0.000000
H34   H     H_    0.794399 0.056264 0.701084 0.000000
H35   H     H_    0.720525 0.036935 0.725008 0.000000
H36   H     H_    0.681240 0.070938 0.710970 0.000000
H37   H     H_    0.560620 0.786570 0.683020 0.000000
H38   H     H_    0.593327 0.715563 0.661442 0.000000
H39   H     H_    0.696202 0.749986 0.654369 0.000000
H40   H     H_    0.766423 0.846343 0.672777 0.000000
C37   C     C_3   0.749000 0.051156 0.642685 0.000000
N13   N     N_3   0.804567 0.079371 0.650053 0.000000
C38   C     C_3   0.800993 0.018122 0.662553 0.000000
C39   C     C_R   0.858121 0.025473 0.667872 0.000000
N14   N     N_R   0.903883 0.040537 0.656216 0.000000
C40   C     C_R   0.936664 0.004536 0.663842 0.000000
C41   C     C_R   0.979821 0.980800 0.656912 0.000000
C42   C     C_R   0.007933 0.945366 0.667103 0.000000
C43   C     C_R   0.992744 0.934198 0.684070 0.000000
C44   C     C_R   0.944200 0.947968 0.690237 0.000000
C45   C     C_R   0.915326 0.978918 0.679586 0.000000
N15   N     N_R   0.864353 0.987877 0.682590 0.000000
H41   H     H_    0.737155 0.104554 0.639287 0.000000
H42   H     H_    0.751443 0.014411 0.631564 0.000000
H43   H     H_    0.714794 0.011304 0.651598 0.000000
H44   H     H_    0.810086 0.134345 0.656058 0.000000
H45   H     H_    0.773494 0.022359 0.673470 0.000000
H46   H     H_    0.783258 0.958592 0.656608 0.000000
H47   H     H_    0.989875 0.985132 0.643827 0.000000
H48   H     H_    0.041675 0.926600 0.661683 0.000000
H49   H     H_    0.017198 0.911757 0.692338 0.000000
H50   H     H_    0.931426 0.939532 0.703180 0.000000
C46   C     C_3   0.948528 0.314679 0.936746 0.000000
N16   N     N_3   0.889119 0.260844 0.935999 0.000000
C47   C     C_3   0.870302 0.270952 0.919528 0.000000
C48   C     C_R   0.806979 0.241865 0.920063 0.000000
N17   N     N_R   0.772368 0.159614 0.919007 0.000000
C49   C     C_R   0.719914 0.166639 0.917513 0.000000
C50   C     C_R   0.667815 0.107852 0.914370 0.000000
C51   C     C_R   0.620360 0.129529 0.912431 0.000000
C52   C     C_R   0.627817 0.210001 0.909484 0.000000
C53   C     C_R   0.682001 0.267157 0.909900 0.000000
C54   C     C_R   0.724253 0.246281 0.916818 0.000000
N18   N     N_R   0.778120 0.297071 0.919026 0.000000
H51   H     H_    0.972355 0.283752 0.943828 0.000000
H52   H     H_    0.969513 0.330125 0.923946 0.000000
H53   H     H_    0.949813 0.370499 0.943463 0.000000
H54   H     H_    0.864584 0.281173 0.944759 0.000000
H55   H     H_    0.885731 0.335819 0.915826 0.000000
H56   H     H_    0.886906 0.238414 0.909902 0.000000
H57   H     H_    0.662760 0.047355 0.911614 0.000000
H58   H     H_    0.579091 0.082921 0.910717 0.000000
H59   H     H_    0.592465 0.226599 0.905451 0.000000
H60   H     H_    0.691937 0.325754 0.904033 0.000000
C55   C     C_3   0.701523 0.669017 0.904111 0.000000
N19   N     N_3   0.712958 0.601000 0.911878 0.000000
C56   C     C_3   0.688555 0.525646 0.902780 0.000000
C57   C     C_R   0.671056 0.456573 0.915246 0.000000
N20   N     N_R   0.710047 0.431238 0.923246 0.000000
C58   C     C_R   0.676504 0.382685 0.935769 0.000000
C59   C     C_R   0.692937 0.341137 0.947986 0.000000
C60   C     C_R   0.651755 0.298925 0.960331 0.000000
C61   C     C_R   0.596265 0.300953 0.960426 0.000000
C62   C     C_R   0.580108 0.339878 0.947474 0.000000
C63   C     C_R   0.620412 0.375905 0.934696 0.000000
N21   N     N_R   0.614310 0.417459 0.921077 0.000000
H61   H     H_    0.703034 0.715238 0.913750 0.000000
H62   H     H_    0.735206 0.698048 0.894201 0.000000
H63   H     H_    0.659012 0.649940 0.898689 0.000000
H64   H     H_    0.694066 0.591921 0.924055 0.000000
H65   H     H_    0.649953 0.524611 0.896351 0.000000
H66   H     H_    0.721104 0.518772 0.893384 0.000000
H67   H     H_    0.736918 0.343494 0.948340 0.000000
H68   H     H_    0.663445 0.267022 0.970346 0.000000
H69   H     H_    0.565214 0.270897 0.970554 0.000000
H70   H     H_    0.537476 0.342736 0.947590 0.000000
C64   C     C_3   0.363204 0.141207 0.375206 0.000000
N22   N     N_3   0.379987 0.175845 0.391436 0.000000
C65   C     C_3   0.396781 0.263894 0.389730 0.000000
C66   C     C_R   0.408215 0.301207 0.406465 0.000000
N23   N     N_R   0.366253 0.318057 0.416096 0.000000
C67   C     C_R   0.392483 0.346352 0.430141 0.000000
C68   C     C_R   0.369154 0.371958 0.444000 0.000000
C69   C     C_R   0.404784 0.407070 0.456604 0.000000
C70   C     C_R   0.461820 0.412646 0.455373 0.000000
C71   C     C_R   0.483635 0.383996 0.441397 0.000000
C72   C     C_R   0.448122 0.350578 0.428823 0.000000
N24   N     N_R   0.460604 0.322713 0.413827 0.000000
H71   H     H_    0.361645 0.077252 0.375374 0.000000
H72   H     H_    0.320243 0.143163 0.372681 0.000000
H73   H     H_    0.394872 0.175804 0.365136 0.000000
H74   H     H_    0.415744 0.162061 0.394642 0.000000
H75   H     H_    0.435040 0.288787 0.381095 0.000000
H76   H     H_    0.361399 0.279079 0.384502 0.000000
H77   H     H_    0.325642 0.370725 0.444493 0.000000
H78   H     H_    0.388141 0.430805 0.467331 0.000000
H79   H     H_    0.489759 0.441138 0.465224 0.000000
H80   H     H_    0.528094 0.393606 0.440124 0.000000
C73   C     C_3   0.459817 0.577568 0.422026 0.000000
N25   N     N_3   0.400871 0.522161 0.423953 0.000000
C74   C     C_3   0.366867 0.543629 0.411878 0.000000
C75   C     C_R   0.305328 0.506314 0.417390 0.000000
N26   N     N_R   0.275146 0.422552 0.418115 0.000000
C76   C     C_R   0.220698 0.419755 0.420429 0.000000
C77   C     C_R   0.172458 0.350761 0.420613 0.000000
C78   C     C_R   0.119758 0.360345 0.422608 0.000000
C79   C     C_R   0.116693 0.437815 0.423879 0.000000
C80   C     C_R   0.166038 0.507227 0.422926 0.000000
C81   C     C_R   0.218070 0.496366 0.421486 0.000000
N27   N     N_R   0.271198 0.554077 0.419631 0.000000
H81   H     H_    0.477220 0.588034 0.434625 0.000000
H82   H     H_    0.485292 0.550146 0.413835 0.000000
H83   H     H_    0.463041 0.637339 0.416571 0.000000
H84   H     H_    0.384631 0.529377 0.435923 0.000000
H85   H     H_    0.376488 0.610215 0.411042 0.000000
H86   H     H_    0.375830 0.522999 0.399359 0.000000
H87   H     H_    0.175245 0.290801 0.419248 0.000000
H88   H     H_    0.080773 0.307303 0.423237 0.000000
H89   H     H_    0.075045 0.443317 0.426178 0.000000
H90   H     H_    0.163502 0.567307 0.423941 0.000000
C82   C     C_3   0.678859 0.922713 0.863746 0.000000
N28   N     N_3   0.663603 0.938869 0.880909 0.000000
C83   C     C_3   0.682990 0.890506 0.892456 0.000000
C84   C     C_R   0.664503 0.902636 0.909849 0.000000
N29   N     N_R   0.702517 0.954019 0.920406 0.000000
C85   C     C_R   0.668716 0.951248 0.934319 0.000000
C86   C     C_R   0.683762 0.997764 0.948325 0.000000
C87   C     C_R   0.642473 0.985512 0.961370 0.000000
C88   C     C_R   0.587850 0.929880 0.960035 0.000000
C89   C     C_R   0.571946 0.890704 0.945151 0.000000
C90   C     C_R   0.613276 0.901842 0.932198 0.000000
N30   N     N_R   0.608055 0.869543 0.916594 0.000000
H91   H     H_    0.644768 0.923794 0.855448 0.000000
H92   H     H_    0.719775 0.968473 0.859027 0.000000
H93   H     H_    0.685904 0.864189 0.863197 0.000000
H94   H     H_    0.619015 0.921463 0.882519 0.000000
H95   H     H_    0.665848 0.825122 0.890047 0.000000
H96   H     H_    0.730323 0.909662 0.891258 0.000000
H97   H     H_    0.726661 0.041440 0.949267 0.000000
H98   H     H_    0.651770 0.018795 0.972761 0.000000
H99   H     H_    0.556878 0.919545 0.970614 0.000000
H100  H     H_    0.528069 0.850896 0.944209 0.000000
C91   C     C_3   0.406722 0.919600 0.368859 0.000000
N31   N     N_3   0.419671 0.920818 0.386403 0.000000
C92   C     C_3   0.391245 0.838132 0.392574 0.000000
C93   C     C_R   0.406856 0.825691 0.409615 0.000000
N32   N     N_R   0.460729 0.863976 0.416086 0.000000
C94   C     C_R   0.455782 0.819537 0.430286 0.000000
C95   C     C_R   0.495183 0.830684 0.442320 0.000000
C96   C     C_R   0.485055 0.770917 0.454659 0.000000
C97   C     C_R   0.437382 0.700393 0.454296 0.000000
C98   C     C_R   0.397333 0.692494 0.442423 0.000000
C99   C     C_R   0.405085 0.755397 0.431350 0.000000
N33   N     N_R   0.371454 0.758237 0.418796 0.000000
H101  H     H_    0.403717 0.978797 0.365052 0.000000
H102  H     H_    0.439669 0.904809 0.360896 0.000000
H103  H     H_    0.365219 0.872128 0.367108 0.000000
H104  H     H_    0.399941 0.957306 0.392703 0.000000
H105  H     H_    0.344600 0.823885 0.393556 0.000000
H106  H     H_    0.400824 0.794632 0.383889 0.000000
H107  H     H_    0.532953 0.884321 0.442435 0.000000
H108  H     H_    0.515726 0.777637 0.464153 0.000000
H109  H     H_    0.431804 0.651351 0.463270 0.000000
H110  H     H_    0.361845 0.637340 0.441376 0.000000
C100  C     C_3   0.294940 0.596153 0.104122 0.000000
N34   N     N_3   0.313710 0.679784 0.097737 0.000000
C101  C     C_3   0.355448 0.684387 0.084220 0.000000
C102  C     C_R   0.382504 0.768372 0.077235 0.000000
N35   N     N_R   0.351340 0.811172 0.069957 0.000000
C103  C     C_R   0.394177 0.867303 0.060520 0.000000
C104  C     C_R   0.391976 0.928560 0.050408 0.000000
C105  C     C_R   0.436355 0.962944 0.038343 0.000000
C106  C     C_R   0.479909 0.931323 0.036149 0.000000
C107  C     C_R   0.484719 0.876980 0.048019 0.000000
C108  C     C_R   0.444986 0.855025 0.061356 0.000000
N36   N     N_R   0.441685 0.799575 0.073234 0.000000
H111  H     H_    0.262166 0.587558 0.114620 0.000000
H112  H     H_    0.276522 0.553718 0.093939 0.000000
H113  H     H_    0.331789 0.581782 0.108698 0.000000
H114  H     H_    0.335762 0.718142 0.106927 0.000000
H115  H     H_    0.389774 0.665177 0.089065 0.000000
H116  H     H_    0.333932 0.644154 0.074044 0.000000
H117  H     H_    0.359160 0.952380 0.052856 0.000000
H118  H     H_    0.436699 0.012472 0.030212 0.000000
H119  H     H_    0.511764 0.952395 0.025768 0.000000
H120  H     H_    0.516621 0.848646 0.046238 0.000000
C109  C     C_3   0.613728 0.713914 0.270823 0.000000
N37   N     N_3   0.599065 0.762298 0.258189 0.000000
C110  C     C_3   0.536740 0.736204 0.258326 0.000000
C111  C     C_R   0.519406 0.801420 0.250701 0.000000
N38   N     N_R   0.514245 0.865756 0.260004 0.000000
C112  C     C_R   0.511748 0.917536 0.247866 0.000000
C113  C     C_R   0.502519 0.989572 0.249184 0.000000
C114  C     C_R   0.514442 0.039721 0.235273 0.000000
C115  C     C_R   0.526616 0.012644 0.219892 0.000000
C116  C     C_R   0.520427 0.932637 0.218366 0.000000
C117  C     C_R   0.515195 0.886750 0.232565 0.000000
N39   N     N_R   0.515711 0.810669 0.233538 0.000000
H121  H     H_    0.659006 0.717690 0.268350 0.000000
H122  H     H_    0.608766 0.737198 0.283487 0.000000
H123  H     H_    0.584883 0.649641 0.270397 0.000000
H124  H     H_    0.613938 0.747913 0.246614 0.000000
H125  H     H_    0.520352 0.679426 0.251117 0.000000
H126  H     H_    0.519616 0.726965 0.271567 0.000000
H127  H     H_    0.484354 0.006802 0.260138 0.000000
H128  H     H_    0.512374 0.099248 0.236440 0.000000
H129  H     H_    0.534289 0.050401 0.208699 0.000000
H130  H     H_    0.517388 0.907965 0.206275 0.000000
C118  C     C_3   0.581402 0.122678 0.629425 0.000000
N40   N     N_3   0.571189 0.149479 0.612980 0.000000
C119  C     C_3   0.529520 0.082078 0.605038 0.000000
C120  C     C_R   0.537520 0.094528 0.586545 0.000000
N41   N     N_R   0.547016 0.169156 0.578438 0.000000
C121  C     C_R   0.572804 0.159286 0.563693 0.000000
C122  C     C_R   0.581518 0.207056 0.549486 0.000000
C123  C     C_R   0.603681 0.184447 0.534912 0.000000
C124  C     C_R   0.620169 0.116879 0.535129 0.000000
C125  C     C_R   0.607156 0.066463 0.549245 0.000000
C126  C     C_R   0.577745 0.084773 0.562874 0.000000
N42   N     N_R   0.551399 0.038424 0.576602 0.000000
H131  H     H_    0.585273 0.171662 0.638576 0.000000
H132  H     H_    0.545822 0.066896 0.633859 0.000000
H133  H     H_    0.622563 0.111608 0.628780 0.000000
H134  H     H_    0.552125 0.193554 0.614787 0.000000
H135  H     H_    0.537419 0.025352 0.607906 0.000000
H136  H     H_    0.486144 0.076281 0.609882 0.000000
H137  H     H_    0.564598 0.254736 0.549184 0.000000
H138  H     H_    0.608722 0.220006 0.523437 0.000000
H139  H     H_    0.639903 0.100532 0.523935 0.000000
H140  H     H_    0.617226 0.012410 0.548590 0.000000
C127  C     C_3   0.519471 0.534728 0.861702 0.000000
N43   N     N_3   0.536664 0.536379 0.878673 0.000000
C128  C     C_3   0.504809 0.574902 0.889292 0.000000
C129  C     C_R   0.536299 0.598491 0.904397 0.000000
N44   N     N_R   0.552773 0.543898 0.913236 0.000000
C130  C     C_R   0.576772 0.587463 0.926565 0.000000
C131  C     C_R   0.590824 0.558398 0.941227 0.000000
C132  C     C_R   0.600249 0.606683 0.955192 0.000000
C133  C     C_R   0.589788 0.679133 0.954895 0.000000
C134  C     C_R   0.572539 0.704214 0.940388 0.000000
C135  C     C_R   0.570793 0.661739 0.926067 0.000000
N45   N     N_R   0.546723 0.672541 0.911949 0.000000
H141  H     H_    0.558026 0.543513 0.853440 0.000000
H142  H     H_    0.486243 0.475134 0.859369 0.000000
H143  H     H_    0.503840 0.585103 0.859030 0.000000
H144  H     H_    0.580157 0.572428 0.878556 0.000000
H145  H     H_    0.499243 0.628671 0.883494 0.000000
H146  H     H_    0.462237 0.531412 0.893000 0.000000
H147  H     H_    0.588526 0.496953 0.942766 0.000000
H148  H     H_    0.609549 0.583753 0.966872 0.000000
H149  H     H_    0.590376 0.712330 0.966344 0.000000
H150  H     H_    0.551639 0.747051 0.940822 0.000000
C136  C     C_3   0.477921 0.015795 0.447053 0.000000
N46   N     N_3   0.491381 0.100859 0.442424 0.000000
C137  C     C_3   0.473294 0.105871 0.425509 0.000000
C138  C     C_R   0.521276 0.127050 0.411958 0.000000
N47   N     N_R   0.531152 0.197730 0.402336 0.000000
C139  C     C_R   0.530740 0.169681 0.386710 0.000000
C140  C     C_R   0.516432 0.202505 0.372728 0.000000
C141  C     C_R   0.504370 0.156280 0.358640 0.000000
C142  C     C_R   0.509703 0.080640 0.358465 0.000000
C143  C     C_R   0.525482 0.048722 0.372440 0.000000
C144  C     C_R   0.531240 0.092063 0.386869 0.000000
N48   N     N_R   0.529629 0.063785 0.402702 0.000000
H151  H     H_    0.430593 0.983952 0.448299 0.000000
H152  H     H_    0.497781 0.987884 0.437288 0.000000
H153  H     H_    0.496221 0.011522 0.459252 0.000000
H154  H     H_    0.535563 0.128825 0.442596 0.000000
H155  H     H_    0.440100 0.047072 0.422429 0.000000
H156  H     H_    0.452964 0.153189 0.425182 0.000000
H157  H     H_    0.509295 0.259148 0.372911 0.000000
H158  H     H_    0.487978 0.177405 0.347978 0.000000
H159  H     H_    0.494474 0.042634 0.347992 0.000000
H160  H     H_    0.525239 0.987299 0.372402 0.000000
C145  C     C_3   0.941706 0.348621 0.588636 0.000000
N49   N     N_3   0.933611 0.418986 0.596580 0.000000
C146  C     C_3   0.893546 0.443089 0.587114 0.000000
C147  C     C_R   0.869995 0.496906 0.597388 0.000000
N50   N     N_R   0.882420 0.514969 0.614176 0.000000
C148  C     C_R   0.850307 0.561736 0.617910 0.000000
C149  C     C_R   0.847958 0.603026 0.632352 0.000000
C150  C     C_R   0.809703 0.643601 0.634185 0.000000
C151  C     C_R   0.772825 0.639508 0.621741 0.000000
C152  C     C_R   0.779813 0.605756 0.606643 0.000000
C153  C     C_R   0.819435 0.568161 0.604779 0.000000
N51   N     N_R   0.830872 0.529624 0.591191 0.000000
H161  H     H_    0.900264 0.297138 0.588392 0.000000
H162  H     H_    0.959793 0.365330 0.575682 0.000000
H163  H     H_    0.971843 0.328850 0.595788 0.000000
H164  H     H_    0.973143 0.466808 0.595612 0.000000
H165  H     H_    0.916241 0.475199 0.575481 0.000000
H166  H     H_    0.857176 0.388662 0.583645 0.000000
H167  H     H_    0.876041 0.607583 0.641878 0.000000
H168  H     H_    0.805785 0.672947 0.645859 0.000000
H169  H     H_    0.737386 0.660358 0.623962 0.000000
H170  H     H_    0.751955 0.604637 0.597197 0.000000
C154  C     C_3   0.998232 0.325541 0.678555 0.000000
N52   N     N_3   0.959569 0.287525 0.665563 0.000000
C155  C     C_3   0.986597 0.316300 0.648912 0.000000
C156  C     C_R   0.941124 0.296045 0.637064 0.000000
N53   N     N_R   0.915988 0.216560 0.631576 0.000000
C157  C     C_R   0.871661 0.223598 0.623525 0.000000
C158  C     C_R   0.830474 0.163639 0.615768 0.000000
C159  C     C_R   0.787278 0.182089 0.608734 0.000000
C160  C     C_R   0.785723 0.259737 0.609316 0.000000
C161  C     C_R   0.826231 0.319394 0.617635 0.000000
C162  C     C_R   0.869838 0.300802 0.624407 0.000000
N54   N     N_R   0.914193 0.350774 0.632598 0.000000
H171  H     H_    0.993779 0.279649 0.688660 0.000000
H172  H     H_    0.043458 0.349496 0.673332 0.000000
H173  H     H_    0.985360 0.374840 0.684204 0.000000
H174  H     H_    0.923639 0.305278 0.667233 0.000000
H175  H     H_    0.009295 0.381325 0.648239 0.000000
H176  H     H_    0.018356 0.288535 0.644822 0.000000
H177  H     H_    0.828424 0.102110 0.616108 0.000000
H178  H     H_    0.753287 0.134888 0.603297 0.000000
H179  H     H_    0.751624 0.272499 0.603596 0.000000
H180  H     H_    0.821099 0.377016 0.619349 0.000000
C163  C     C_3   0.090806 0.889617 0.822258 0.000000
N55   N     N_3   0.029242 0.870895 0.825382 0.000000
C164  C     C_3   0.014341 0.850392 0.843108 0.000000
C165  C     C_R   0.950778 0.817802 0.846050 0.000000
N56   N     N_R   0.917872 0.868079 0.848405 0.000000
C166  C     C_R   0.865302 0.812104 0.852431 0.000000
C167  C     C_R   0.816028 0.825853 0.857877 0.000000
C168  C     C_R   0.767294 0.759381 0.862113 0.000000
C169  C     C_R   0.768295 0.680802 0.861241 0.000000
C170  C     C_R   0.818913 0.668226 0.856711 0.000000
C171  C     C_R   0.866699 0.734508 0.852246 0.000000
N57   N     N_R   0.920039 0.734363 0.848317 0.000000
H181  H     H_    0.114856 0.942703 0.829703 0.000000
H182  H     H_    0.102904 0.837273 0.825930 0.000000
H183  H     H_    0.102638 0.903688 0.808691 0.000000
H184  H     H_    0.007408 0.820553 0.818367 0.000000
H185  H     H_    0.031733 0.803390 0.847103 0.000000
H186  H     H_    0.032521 0.905330 0.850736 0.000000
H187  H     H_    0.814653 0.886215 0.859251 0.000000
H188  H     H_    0.728620 0.768883 0.866747 0.000000
H189  H     H_    0.729963 0.629473 0.864895 0.000000
H190  H     H_    0.820729 0.607993 0.856939 0.000000
C172  C     C_3   0.846936 0.699767 0.916491 0.000000
N58   N     N_3   0.832063 0.649779 0.901784 0.000000
C173  C     C_3   0.881771 0.629711 0.896084 0.000000
C174  C     C_R   0.863229 0.553514 0.886408 0.000000
N59   N     N_R   0.830427 0.477611 0.893713 0.000000
C175  C     C_R   0.836182 0.427498 0.881421 0.000000
C176  C     C_R   0.816980 0.344597 0.881524 0.000000
C177  C     C_R   0.841041 0.306920 0.869857 0.000000
C178  C     C_R   0.878275 0.349701 0.856917 0.000000
C179  C     C_R   0.893687 0.432784 0.856235 0.000000
C180  C     C_R   0.871107 0.469789 0.868308 0.000000
N60   N     N_R   0.886420 0.550046 0.870209 0.000000
H191  H     H_    0.848872 0.661537 0.927398 0.000000
H192  H     H_    0.888916 0.748813 0.913859 0.000000
H193  H     H_    0.813990 0.728048 0.919437 0.000000
H194  H     H_    0.825464 0.686281 0.892335 0.000000
H195  H     H_    0.911111 0.679820 0.887876 0.000000
H196  H     H_    0.905000 0.621016 0.906975 0.000000
H197  H     H_    0.784586 0.308106 0.890124 0.000000
H198  H     H_    0.834878 0.244622 0.871955 0.000000
H199  H     H_    0.898356 0.319013 0.848196 0.000000
H200  H     H_    0.927530 0.468254 0.847795 0.000000
C181  C     C_3   0.323207 0.687663 0.141111 0.000000
N61   N     N_3   0.261583 0.658890 0.145735 0.000000
C182  C     C_3   0.254048 0.710378 0.159156 0.000000
C183  C     C_R   0.197919 0.676077 0.168926 0.000000
N62   N     N_R   0.146153 0.640509 0.161416 0.000000
C184  C     C_R   0.107962 0.638782 0.174398 0.000000
C185  C     C_R   0.051717 0.634665 0.173996 0.000000
C186  C     C_R   0.019932 0.629313 0.189049 0.000000
C187  C     C_R   0.045564 0.633230 0.204118 0.000000
C188  C     C_R   0.104278 0.652051 0.204071 0.000000
C189  C     C_R   0.134897 0.660810 0.188955 0.000000
N63   N     N_R   0.192277 0.690389 0.186068 0.000000
H201  H     H_    0.334445 0.640529 0.134105 0.000000
H202  H     H_    0.335332 0.745764 0.133802 0.000000
H203  H     H_    0.349650 0.699819 0.152123 0.000000
H204  H     H_    0.248508 0.598871 0.150258 0.000000
H205  H     H_    0.287371 0.719393 0.167784 0.000000
H206  H     H_    0.260614 0.771158 0.154095 0.000000
H207  H     H_    0.033510 0.642160 0.162536 0.000000
H208  H     H_    0.974860 0.621616 0.189106 0.000000
H209  H     H_    0.020254 0.626135 0.215875 0.000000
H210  H     H_    0.124723 0.655225 0.215585 0.000000
C190  C     C_3   0.183180 0.504607 0.223913 0.000000
N64   N     N_3   0.215071 0.534777 0.238694 0.000000
C191  C     C_3   0.259841 0.612975 0.234573 0.000000
C192  C     C_R   0.240110 0.678414 0.240983 0.000000
N65   N     N_R   0.226263 0.686002 0.257893 0.000000
C193  C     C_R   0.189274 0.727494 0.256859 0.000000
C194  C     C_R   0.161494 0.754994 0.269599 0.000000
C195  C     C_R   0.119903 0.786850 0.265511 0.000000
C196  C     C_R   0.108996 0.795299 0.248905 0.000000
C197  C     C_R   0.141555 0.775755 0.236168 0.000000
C198  C     C_R   0.182261 0.743333 0.240467 0.000000
N66   N     N_R   0.217523 0.719029 0.230058 0.000000
H211  H     H_    0.146276 0.448195 0.227378 0.000000
H212  H     H_    0.166495 0.550706 0.218935 0.000000
H213  H     H_    0.211249 0.489559 0.214189 0.000000
H214  H     H_    0.233475 0.492344 0.242095 0.000000
H215  H     H_    0.301080 0.617109 0.239550 0.000000
H216  H     H_    0.265681 0.619751 0.220889 0.000000
H217  H     H_    0.171120 0.752728 0.282445 0.000000
H218  H     H_    0.095519 0.805293 0.275321 0.000000
H219  H     H_    0.076350 0.820127 0.245888 0.000000
H220  H     H_    0.135424 0.787128 0.223226 0.000000
C199  C     C_3   0.404712 0.000488 0.201134 0.000000
N67   N     N_3   0.407845 0.921034 0.197283 0.000000
C200  C     C_3   0.388216 0.869266 0.212255 0.000000
C201  C     C_R   0.378531 0.784015 0.208054 0.000000
N68   N     N_R   0.325230 0.740583 0.202685 0.000000
C202  C     C_R   0.335108 0.679469 0.194604 0.000000
C203  C     C_R   0.296713 0.617386 0.186639 0.000000
C204  C     C_R   0.318872 0.576707 0.175174 0.000000
C205  C     C_R   0.376973 0.588194 0.173992 0.000000
C206  C     C_R   0.413285 0.640743 0.184693 0.000000
C207  C     C_R   0.391248 0.686778 0.194792 0.000000
N69   N     N_R   0.420406 0.748951 0.204311 0.000000
H221  H     H_    0.445379 0.041064 0.205599 0.000000
H222  H     H_    0.397122 0.029313 0.189697 0.000000
H223  H     H_    0.369653 0.995327 0.210707 0.000000
H224  H     H_    0.449644 0.927036 0.193267 0.000000
H225  H     H_    0.414133 0.891382 0.223074 0.000000
H226  H     H_    0.344678 0.868563 0.215450 0.000000
H227  H     H_    0.251194 0.604207 0.188143 0.000000
H228  H     H_    0.290146 0.538009 0.166850 0.000000
H229  H     H_    0.393525 0.554350 0.165054 0.000000
H230  H     H_    0.457716 0.646738 0.184795 0.000000
C208  C     C_3   0.738781 0.307045 0.532191 0.000000
N70   N     N_3   0.764622 0.386298 0.539526 0.000000
C209  C     C_3   0.790203 0.445360 0.526015 0.000000
C210  C     C_R   0.842220 0.509765 0.531617 0.000000
N71   N     N_R   0.847689 0.541934 0.547545 0.000000
C211  C     C_R   0.904867 0.580127 0.547803 0.000000
C212  C     C_R   0.935171 0.616738 0.561235 0.000000
C213  C     C_R   0.994413 0.643577 0.559522 0.000000
C214  C     C_R   0.021955 0.632298 0.544678 0.000000
C215  C     C_R   0.990674 0.597262 0.531138 0.000000
C216  C     C_R   0.931783 0.573201 0.532811 0.000000
N72   N     N_R   0.892976 0.531954 0.521852 0.000000
H231  H     H_    0.716940 0.261878 0.542379 0.000000
H232  H     H_    0.707463 0.310579 0.523117 0.000000
H233  H     H_    0.772241 0.287590 0.525658 0.000000
H234  H     H_    0.797359 0.384448 0.546922 0.000000
H235  H     H_    0.804558 0.415748 0.515429 0.000000
H236  H     H_    0.758433 0.470045 0.521472 0.000000
H237  H     H_    0.913871 0.624087 0.572883 0.000000
H238  H     H_    0.019296 0.672045 0.569919 0.000000
H239  H     H_    0.068273 0.650941 0.543715 0.000000
H240  H     H_    0.012354 0.583246 0.520311 0.000000
C217  C     C_3   0.980426 0.408967 0.540979 0.000000
N73   N     N_3   0.945301 0.356274 0.528746 0.000000
C218  C     C_3   0.969688 0.379120 0.511657 0.000000
C219  C     C_R   0.924355 0.339516 0.499955 0.000000
N74   N     N_R   0.898439 0.254958 0.497806 0.000000
C220  C     C_R   0.846680 0.252067 0.492773 0.000000
C221  C     C_R   0.797265 0.186040 0.494625 0.000000
C222  C     C_R   0.745451 0.194562 0.491773 0.000000
C223  C     C_R   0.743761 0.270325 0.487514 0.000000
C224  C     C_R   0.793277 0.338456 0.486939 0.000000
C225  C     C_R   0.844031 0.328007 0.490324 0.000000
N75   N     N_R   0.892626 0.385408 0.494816 0.000000
H241  H     H_    0.996321 0.372278 0.549370 0.000000
H242  H     H_    0.016927 0.458345 0.534920 0.000000
H243  H     H_    0.953405 0.435835 0.548712 0.000000
H244  H     H_    0.906844 0.368196 0.529482 0.000000
H245  H     H_    0.980271 0.445495 0.509909 0.000000
H246  H     H_    0.008898 0.365325 0.508659 0.000000
H247  H     H_    0.798423 0.132779 0.500608 0.000000
H248  H     H_    0.705894 0.142769 0.493572 0.000000
H249  H     H_    0.702915 0.276407 0.485744 0.000000
H250  H     H_    0.790424 0.397858 0.485234 0.000000
C226  C     C_3   0.926152 0.736904 0.495862 0.000000
N76   N     N_3   0.962624 0.706138 0.485356 0.000000
C227  C     C_3   0.014520 0.722018 0.494057 0.000000
C228  C     C_R   0.034258 0.653072 0.491754 0.000000
N77   N     N_R   0.994440 0.576238 0.489402 0.000000
C229  C     C_R   0.026729 0.539349 0.481330 0.000000
C230  C     C_R   0.007200 0.468321 0.472633 0.000000
C231  C     C_R   0.046734 0.445577 0.463243 0.000000
C232  C     C_R   0.104045 0.493934 0.462894 0.000000
C233  C     C_R   0.123057 0.563921 0.472095 0.000000
C234  C     C_R   0.083253 0.588146 0.480532 0.000000
N78   N     N_R   0.091074 0.661692 0.487340 0.000000
H251  H     H_    0.886528 0.728698 0.489425 0.000000
H252  H     H_    0.914461 0.702120 0.507945 0.000000
H253  H     H_    0.949125 0.802636 0.498029 0.000000
H254  H     H_    0.973838 0.742717 0.474444 0.000000
H255  H     H_    0.046943 0.777466 0.488365 0.000000
H256  H     H_    0.005164 0.726568 0.507561 0.000000
H257  H     H_    0.962322 0.435333 0.471514 0.000000
H258  H     H_    0.032780 0.391423 0.455770 0.000000
H259  H     H_    0.133900 0.476939 0.455075 0.000000
H260  H     H_    0.167284 0.599112 0.472491 0.000000
C235  C     C_3   0.697118 0.500807 0.972425 0.000000
N79   N     N_3   0.755627 0.500499 0.971950 0.000000
C236  C     C_3   0.787599 0.548020 0.957383 0.000000
C237  C     C_R   0.837525 0.523042 0.952592 0.000000
N80   N     N_R   0.887762 0.549111 0.961125 0.000000
C238  C     C_R   0.924701 0.530991 0.950161 0.000000
C239  C     C_R   0.982656 0.551093 0.951033 0.000000
C240  C     C_R   0.014391 0.545019 0.936718 0.000000
C241  C     C_R   0.987810 0.516229 0.922189 0.000000
C242  C     C_R   0.928963 0.490347 0.921906 0.000000
C243  C     C_R   0.898356 0.497390 0.936116 0.000000
N81   N     N_R   0.842328 0.486879 0.937372 0.000000
H261  H     H_    0.669788 0.450603 0.980946 0.000000
H262  H     H_    0.696521 0.560561 0.976702 0.000000
H263  H     H_    0.678972 0.490374 0.959979 0.000000
H264  H     H_    0.754013 0.440560 0.970591 0.000000
H265  H     H_    0.760730 0.538955 0.946464 0.000000
H266  H     H_    0.803114 0.613765 0.960371 0.000000
H267  H     H_    0.003662 0.575673 0.962056 0.000000
H268  H     H_    0.060573 0.564861 0.936596 0.000000
H269  H     H_    0.013635 0.514057 0.911149 0.000000
H270  H     H_    0.907886 0.469458 0.910640 0.000000
C244  C     C_3   0.928364 0.730365 0.034484 0.000000
N82   N     N_3   0.930576 0.740158 0.016355 0.000000
C245  C     C_3   0.891068 0.780659 0.011474 0.000000
C246  C     C_R   0.891514 0.784884 0.992792 0.000000
N83   N     N_R   0.899234 0.723565 0.982747 0.000000
C247  C     C_R   0.912941 0.761737 0.967590 0.000000
C248  C     C_R   0.937246 0.737407 0.953681 0.000000
C249  C     C_R   0.958239 0.790193 0.940124 0.000000
C250  C     C_R   0.960521 0.869712 0.941296 0.000000
C251  C     C_R   0.941114 0.894793 0.955984 0.000000
C252  C     C_R   0.914188 0.839789 0.968534 0.000000
N84   N     N_R   0.899477 0.857891 0.984123 0.000000
H271  H     H_    0.896452 0.754469 0.040466 0.000000
H272  H     H_    0.916241 0.664683 0.037901 0.000000
H273  H     H_    0.971613 0.761878 0.039019 0.000000
H274  H     H_    0.918057 0.681839 0.011459 0.000000
H275  H     H_    0.847250 0.752121 0.016909 0.000000
H276  H     H_    0.904022 0.841822 0.016574 0.000000
H277  H     H_    0.945671 0.682383 0.953597 0.000000
H278  H     H_    0.976608 0.770569 0.929105 0.000000
H279  H     H_    0.981858 0.913737 0.931398 0.000000
H280  H     H_    0.954026 0.957054 0.958566 0.000000
C253  C     C_3   0.975098 0.408427 0.017285 0.000000
N85   N     N_3   0.962902 0.470112 0.007677 0.000000
C254  C     C_3   0.005529 0.494433 0.993775 0.000000
C255  C     C_R   0.030645 0.584275 0.993001 0.000000
N86   N     N_R   0.998096 0.633367 0.990567 0.000000
C256  C     C_R   0.036305 0.707774 0.994312 0.000000
C257  C     C_R   0.034197 0.784263 0.991704 0.000000
C258  C     C_R   0.080788 0.850919 0.995741 0.000000
C259  C     C_R   0.126264 0.841588 0.003560 0.000000
C260  C     C_R   0.131178 0.766247 0.004344 0.000000
C261  C     C_R   0.086784 0.701663 0.998818 0.000000
N87   N     N_R   0.086858 0.626113 0.996992 0.000000
H281  H     H_    0.938267 0.379969 0.026206 0.000000
H282  H     H_    0.981873 0.362230 0.008791 0.000000
H283  H     H_    0.013570 0.435584 0.024514 0.000000
H284  H     H_    0.969127 0.520185 0.015403 0.000000
H285  H     H_    0.040248 0.471413 0.996262 0.000000
H286  H     H_    0.985724 0.469448 0.981963 0.000000
H287  H     H_    0.000804 0.794586 0.985433 0.000000
H288  H     H_    0.082397 0.911613 0.992657 0.000000
H289  H     H_    0.160488 0.893869 0.007534 0.000000
H290  H     H_    0.170573 0.760530 0.008041 0.000000
C262  C     C_3   0.168737 0.376627 0.475657 0.000000
N88   N     N_3   0.162063 0.299718 0.467741 0.000000
C263  C     C_3   0.218163 0.307817 0.460265 0.000000
C264  C     C_R   0.215569 0.231721 0.451869 0.000000
N89   N     N_R   0.195669 0.156488 0.460206 0.000000
C265  C     C_R   0.210790 0.109415 0.448819 0.000000
C266  C     C_R   0.198586 0.026920 0.449104 0.000000
C267  C     C_R   0.233857 0.996991 0.439141 0.000000
C268  C     C_R   0.276794 0.049121 0.428365 0.000000
C269  C     C_R   0.278348 0.127906 0.425611 0.000000
C270  C     C_R   0.242769 0.155341 0.435649 0.000000
N90   N     N_R   0.242538 0.231740 0.436168 0.000000
H291  H     H_    0.126178 0.375956 0.480739 0.000000
H292  H     H_    0.198932 0.387763 0.485832 0.000000
H293  H     H_    0.187956 0.426068 0.466334 0.000000
H294  H     H_    0.134516 0.293622 0.458009 0.000000
H295  H     H_    0.232441 0.358561 0.450915 0.000000
H296  H     H_    0.249507 0.320076 0.470151 0.000000
H297  H     H_    0.164463 0.987055 0.457206 0.000000
H298  H     H_    0.228498 0.933020 0.439836 0.000000
H299  H     H_    0.304955 0.025727 0.420838 0.000000
H300  H     H_    0.307228 0.166586 0.416097 0.000000
C271  C     C_3   0.038461 0.930673 0.463118 0.000000
N91   N     N_3   0.055734 0.013851 0.468971 0.000000
C272  C     C_3   0.006849 0.024158 0.478276 0.000000
C273  C     C_R   0.027712 0.099758 0.488010 0.000000
N92   N     N_R   0.086057 0.137418 0.490580 0.000000
C274  C     C_R   0.084536 0.198299 0.500685 0.000000
C275  C     C_R   0.129742 0.260983 0.506338 0.000000
C276  C     C_R   0.118532 0.308627 0.518787 0.000000
C277  C     C_R   0.063089 0.289684 0.525756 0.000000
C278  C     C_R   0.017305 0.233493 0.518357 0.000000
C279  C     C_R   0.029498 0.192644 0.505016 0.000000
N93   N     N_R   0.991401 0.134720 0.496511 0.000000
H301  H     H_    0.066892 0.928149 0.452112 0.000000
H302  H     H_    0.041994 0.889807 0.473281 0.000000
H303  H     H_    0.993705 0.910347 0.459245 0.000000
H304  H     H_    0.065614 0.053043 0.458444 0.000000
H305  H     H_    0.975547 0.029061 0.469415 0.000000
H306  H     H_    0.986400 0.971665 0.487129 0.000000
H307  H     H_    0.172798 0.273672 0.501367 0.000000
H308  H     H_    0.153736 0.356412 0.523988 0.000000
H309  H     H_    0.055652 0.321719 0.536546 0.000000
H310  H     H_    0.973554 0.221475 0.523088 0.000000
C280  C     C_3   0.353690 0.032096 0.485026 0.000000
N94   N     N_3   0.294611 0.992009 0.491730 0.000000
C281  C     C_3   0.256975 0.985058 0.478066 0.000000
C282  C     C_R   0.195551 0.949536 0.484517 0.000000
N95   N     N_R   0.172856 0.870150 0.490671 0.000000
C283  C     C_R   0.133758 0.875635 0.502267 0.000000
C284  C     C_R   0.109694 0.821622 0.515157 0.000000
C285  C     C_R   0.069098 0.836687 0.525603 0.000000
C286  C     C_R   0.054374 0.905590 0.523217 0.000000
C287  C     C_R   0.084474 0.964254 0.511187 0.000000
C288  C     C_R   0.125378 0.948246 0.501018 0.000000
N96   N     N_R   0.163380 0.997812 0.489539 0.000000
H311  H     H_    0.382341 0.053006 0.495515 0.000000
H312  H     H_    0.367729 0.988859 0.477356 0.000000
H313  H     H_    0.357606 0.086295 0.477142 0.000000
H314  H     H_    0.285572 0.030926 0.500473 0.000000
H315  H     H_    0.265086 0.046964 0.473004 0.000000
H316  H     H_    0.266133 0.945445 0.468330 0.000000
H317  H     H_    0.119897 0.767122 0.516664 0.000000
H318  H     H_    0.046442 0.790044 0.534699 0.000000
H319  H     H_    0.020695 0.915131 0.531159 0.000000
H320  H     H_    0.076313 0.020450 0.510213 0.000000
C289  C     C_3   0.743905 0.773443 0.965356 0.000000
N97   N     N_3   0.794947 0.844598 0.961307 0.000000
C290  C     C_3   0.776854 0.913910 0.958479 0.000000
C291  C     C_R   0.827967 0.986953 0.953245 0.000000
N98   N     N_R   0.832704 0.027966 0.937901 0.000000
C292  C     C_R   0.888527 0.074185 0.936884 0.000000
C293  C     C_R   0.918505 0.115120 0.922909 0.000000
C294  C     C_R   0.977518 0.149609 0.922910 0.000000
C295  C     C_R   0.005144 0.143099 0.937118 0.000000
C296  C     C_R   0.973758 0.101912 0.951275 0.000000
C297  C     C_R   0.915001 0.066661 0.950926 0.000000
N99   N     N_R   0.877772 0.012984 0.962193 0.000000
H321  H     H_    0.757058 0.720382 0.968051 0.000000
H322  H     H_    0.719619 0.784905 0.976584 0.000000
H323  H     H_    0.716231 0.759202 0.954522 0.000000
H324  H     H_    0.813366 0.833437 0.949907 0.000000
H325  H     H_    0.747220 0.899165 0.948199 0.000000
H326  H     H_    0.754729 0.925929 0.970053 0.000000
H327  H     H_    0.895820 0.116831 0.912129 0.000000
H328  H     H_    0.002152 0.180764 0.911791 0.000000
H329  H     H_    0.051519 0.168662 0.936989 0.000000
H330  H     H_    0.995748 0.092391 0.961777 0.000000
C298  C     C_3   0.620580 0.462836 0.838064 0.000000
N100  N     N_3   0.562412 0.409006 0.835506 0.000000
C299  C     C_3   0.562952 0.364294 0.820342 0.000000
C300  C     C_R   0.505909 0.340189 0.813476 0.000000
N101  N     N_R   0.453949 0.290300 0.821326 0.000000
C301  C     C_R   0.416128 0.292988 0.809660 0.000000
C302  C     C_R   0.356731 0.257721 0.809839 0.000000
C303  C     C_R   0.327450 0.274556 0.796900 0.000000
C304  C     C_R   0.356557 0.329942 0.784310 0.000000
C305  C     C_R   0.415241 0.366639 0.784519 0.000000
C306  C     C_R   0.443897 0.345046 0.796749 0.000000
N102  N     N_R   0.500791 0.373538 0.798326 0.000000
H331  H     H_    0.628358 0.462048 0.851590 0.000000
H332  H     H_    0.652063 0.443034 0.830605 0.000000
H333  H     H_    0.625713 0.526069 0.834344 0.000000
H334  H     H_    0.537988 0.445143 0.833298 0.000000
H335  H     H_    0.592532 0.405497 0.810933 0.000000
H336  H     H_    0.577251 0.311841 0.822082 0.000000
H337  H     H_    0.331010 0.223734 0.820128 0.000000
H338  H     H_    0.281045 0.248106 0.797228 0.000000
H339  H     H_    0.333248 0.346810 0.774748 0.000000
H340  H     H_    0.437629 0.415141 0.776071 0.000000
C307  C     C_3   0.371003 0.412267 0.883520 0.000000
N103  N     N_3   0.405278 0.387021 0.894766 0.000000
C308  C     C_3   0.411413 0.314014 0.888058 0.000000
C309  C     C_R   0.469022 0.330531 0.879899 0.000000
N104  N     N_R   0.476004 0.293541 0.864943 0.000000
C310  C     C_R   0.531237 0.301948 0.864797 0.000000
C311  C     C_R   0.557871 0.266698 0.853710 0.000000
C312  C     C_R   0.612333 0.269091 0.856671 0.000000
C313  C     C_R   0.639142 0.309444 0.870422 0.000000
C314  C     C_R   0.611661 0.348157 0.881089 0.000000
C315  C     C_R   0.556839 0.342876 0.878326 0.000000
N105  N     N_R   0.519085 0.364500 0.888423 0.000000
H341  H     H_    0.366867 0.470010 0.887851 0.000000
H342  H     H_    0.393067 0.422582 0.870892 0.000000
H343  H     H_    0.327239 0.365767 0.883355 0.000000
H344  H     H_    0.379994 0.369822 0.905840 0.000000
H345  H     H_    0.405905 0.270412 0.898257 0.000000
H346  H     H_    0.378118 0.285298 0.879386 0.000000
H347  H     H_    0.534239 0.234678 0.843473 0.000000
H348  H     H_    0.632192 0.235157 0.848896 0.000000
H349  H     H_    0.681228 0.308832 0.873037 0.000000
H350  H     H_    0.631455 0.375774 0.891788 0.000000
C316  C     C_3   0.184865 0.030846 0.866827 0.000000
N106  N     N_3   0.239947 0.063957 0.857508 0.000000
C317  C     C_3   0.279560 0.125442 0.867373 0.000000
C318  C     C_R   0.293996 0.207032 0.859220 0.000000
N107  N     N_R   0.347618 0.246988 0.851307 0.000000
C319  C     C_R   0.341735 0.316888 0.845944 0.000000
C320  C     C_R   0.381530 0.381780 0.837330 0.000000
C321  C     C_R   0.361247 0.430442 0.827545 0.000000
C322  C     C_R   0.302783 0.414195 0.827224 0.000000
C323  C     C_R   0.265509 0.355615 0.838054 0.000000
C324  C     C_R   0.286908 0.314138 0.848691 0.000000
N108  N     N_R   0.255871 0.249161 0.858320 0.000000
H351  H     H_    0.153637 0.986095 0.859105 0.000000
H352  H     H_    0.189240 0.000208 0.878616 0.000000
H353  H     H_    0.168986 0.081132 0.869411 0.000000
H354  H     H_    0.233956 0.092531 0.846641 0.000000
H355  H     H_    0.261809 0.125321 0.880387 0.000000
H356  H     H_    0.319639 0.111541 0.867326 0.000000
H357  H     H_    0.426578 0.390974 0.837330 0.000000
H358  H     H_    0.390148 0.477479 0.819256 0.000000
H359  H     H_    0.286350 0.445980 0.818292 0.000000
H360  H     H_    0.221372 0.330331 0.835872 0.000000
C325  C     C_3   0.729629 0.330626 0.379980 0.000000
N109  N     N_3   0.674815 0.339587 0.384838 0.000000
C326  C     C_3   0.647947 0.343682 0.369433 0.000000
C327  C     C_R   0.612257 0.396961 0.370724 0.000000
N110  N     N_R   0.568972 0.388522 0.383075 0.000000
C328  C     C_R   0.540313 0.433177 0.376438 0.000000
C329  C     C_R   0.493066 0.448523 0.382965 0.000000
C330  C     C_R   0.460568 0.471838 0.371896 0.000000
C331  C     C_R   0.475493 0.477218 0.354849 0.000000
C332  C     C_R   0.528484 0.474880 0.349259 0.000000
C333  C     C_R   0.562589 0.460921 0.360780 0.000000
N111  N     N_R   0.611660 0.447165 0.357342 0.000000
H361  H     H_    0.741846 0.298313 0.390159 0.000000
H362  H     H_    0.726972 0.295735 0.368330 0.000000
H363  H     H_    0.763628 0.390420 0.377869 0.000000
H364  H     H_    0.682733 0.394781 0.390857 0.000000
H365  H     H_    0.680862 0.368714 0.359158 0.000000
H366  H     H_    0.622414 0.281367 0.365906 0.000000
H367  H     H_    0.481245 0.443065 0.396110 0.000000
H368  H     H_    0.422295 0.482566 0.376422 0.000000
H369  H     H_    0.447293 0.488442 0.346069 0.000000
H370  H     H_    0.541682 0.479523 0.336108 0.000000
C334  C     C_3   0.612405 0.237935 0.324384 0.000000
N112  N     N_3   0.586814 0.286169 0.334605 0.000000
C335  C     C_3   0.548599 0.311989 0.324764 0.000000
C336  C     C_R   0.583124 0.369540 0.311410 0.000000
N113  N     N_R   0.627392 0.441628 0.314598 0.000000
C337  C     C_R   0.650023 0.467050 0.298960 0.000000
C338  C     C_R   0.693206 0.538337 0.294144 0.000000
C339  C     C_R   0.718845 0.545235 0.278150 0.000000
C340  C     C_R   0.700147 0.480889 0.267324 0.000000
C341  C     C_R   0.651937 0.413655 0.271816 0.000000
C342  C     C_R   0.625304 0.409943 0.287522 0.000000
N114  N     N_R   0.579130 0.349722 0.294635 0.000000
H371  H     H_    0.618815 0.191516 0.332713 0.000000
H372  H     H_    0.584441 0.207068 0.314303 0.000000
H373  H     H_    0.654735 0.277884 0.318720 0.000000
H374  H     H_    0.620876 0.338334 0.337266 0.000000
H375  H     H_    0.517382 0.258920 0.319119 0.000000
H376  H     H_    0.524252 0.340789 0.332940 0.000000
H377  H     H_    0.705255 0.588387 0.302336 0.000000
H378  H     H_    0.753990 0.600250 0.274184 0.000000
H379  H     H_    0.721343 0.485107 0.254962 0.000000
H380  H     H_    0.637236 0.366035 0.263154 0.000000
C343  C     C_3   0.819461 0.672454 0.364315 0.000000
N115  N     N_3   0.760758 0.620165 0.368258 0.000000
C344  C     C_3   0.755089 0.535982 0.370334 0.000000
C345  C     C_R   0.774924 0.504103 0.354907 0.000000
N116  N     N_R   0.743565 0.485457 0.340765 0.000000
C346  C     C_R   0.780345 0.467456 0.329721 0.000000
C347  C     C_R   0.773025 0.446564 0.313220 0.000000
C348  C     C_R   0.821046 0.451288 0.303050 0.000000
C349  C     C_R   0.874962 0.477076 0.309535 0.000000
C350  C     C_R   0.880426 0.490565 0.326553 0.000000
C351  C     C_R   0.831600 0.479865 0.336637 0.000000
N117  N     N_R   0.828432 0.496454 0.353102 0.000000
H381  H     H_    0.824516 0.698157 0.351464 0.000000
H382  H     H_    0.830141 0.723269 0.373158 0.000000
H383  H     H_    0.848346 0.637938 0.365626 0.000000
H384  H     H_    0.734557 0.624173 0.359040 0.000000
H385  H     H_    0.778397 0.528967 0.380983 0.000000
H386  H     H_    0.709742 0.502549 0.373389 0.000000
H387  H     H_    0.731468 0.426254 0.308275 0.000000
H388  H     H_    0.816731 0.436878 0.289907 0.000000
H389  H     H_    0.912584 0.483300 0.301382 0.000000
H390  H     H_    0.921938 0.507863 0.331785 0.000000
C352  C     C_3   0.833708 0.292437 0.145087 0.000000
N118  N     N_3   0.795079 0.336906 0.143279 0.000000
C353  C     C_3   0.812742 0.392208 0.128712 0.000000
C354  C     C_R   0.777721 0.444942 0.129700 0.000000
N119  N     N_R   0.725145 0.424005 0.138842 0.000000
C355  C     C_R   0.724710 0.498484 0.143270 0.000000
C356  C     C_R   0.689306 0.518411 0.154864 0.000000
C357  C     C_R   0.691889 0.597948 0.155674 0.000000
C358  C     C_R   0.729764 0.655523 0.144877 0.000000
C359  C     C_R   0.769748 0.636908 0.134864 0.000000
C360  C     C_R   0.768746 0.558358 0.135232 0.000000
N120  N     N_R   0.804741 0.527097 0.127224 0.000000
H391  H     H_    0.810502 0.229188 0.141646 0.000000
H392  H     H_    0.873961 0.320191 0.137127 0.000000
H393  H     H_    0.843756 0.291483 0.158432 0.000000
H394  H     H_    0.797463 0.371718 0.153946 0.000000
H395  H     H_    0.857776 0.430171 0.128413 0.000000
H396  H     H_    0.812435 0.363429 0.116564 0.000000
H397  H     H_    0.661544 0.475985 0.163602 0.000000
H398  H     H_    0.662390 0.614150 0.164178 0.000000
H399  H     H_    0.728297 0.715510 0.144077 0.000000
H400  H     H_    0.795619 0.681700 0.125921 0.000000
C361  C     C_3   0.462267 0.138239 0.647521 0.000000
N121  N     N_3   0.447066 0.193479 0.658481 0.000000
C362  C     C_3   0.500317 0.252110 0.663634 0.000000
C363  C     C_R   0.484651 0.310392 0.674341 0.000000
N122  N     N_R   0.439945 0.334255 0.669847 0.000000
C364  C     C_R   0.418145 0.347846 0.684916 0.000000
C365  C     C_R   0.365892 0.355996 0.688145 0.000000
C366  C     C_R   0.341929 0.346810 0.704322 0.000000
C367  C     C_R   0.371052 0.329260 0.717124 0.000000
C368  C     C_R   0.425114 0.325020 0.713847 0.000000
C369  C     C_R   0.448580 0.334322 0.697573 0.000000
N123  N     N_R   0.494550 0.316112 0.691358 0.000000
H401  H     H_    0.422742 0.095048 0.642485 0.000000
H402  H     H_    0.491351 0.173957 0.637254 0.000000
H403  H     H_    0.485323 0.106101 0.654540 0.000000
H404  H     H_    0.425700 0.159689 0.669175 0.000000
H405  H     H_    0.523245 0.220194 0.670933 0.000000
H406  H     H_    0.527427 0.284782 0.652530 0.000000
H407  H     H_    0.341387 0.359608 0.678146 0.000000
H408  H     H_    0.299465 0.349794 0.706853 0.000000
H409  H     H_    0.352047 0.320475 0.729836 0.000000
H410  H     H_    0.447063 0.314618 0.724099 0.000000
C370  C     C_3   0.238800 0.358641 0.622014 0.000000
N124  N     N_3   0.250547 0.294040 0.612984 0.000000
C371  C     C_3   0.305490 0.287022 0.616407 0.000000
C372  C     C_R   0.297043 0.225404 0.629727 0.000000
N125  N     N_R   0.249467 0.155003 0.631461 0.000000
C373  C     C_R   0.252388 0.132349 0.647638 0.000000
C374  C     C_R   0.207551 0.085342 0.658320 0.000000
C375  C     C_R   0.215976 0.082182 0.675312 0.000000
C376  C     C_R   0.269146 0.123024 0.681338 0.000000
C377  C     C_R   0.312409 0.174078 0.670741 0.000000
C378  C     C_R   0.301730 0.181555 0.654230 0.000000
N126  N     N_R   0.331097 0.241956 0.643226 0.000000
H411  H     H_    0.211029 0.380498 0.614352 0.000000
H412  H     H_    0.214687 0.335496 0.634027 0.000000
H413  H     H_    0.278751 0.409711 0.623821 0.000000
H414  H     H_    0.255662 0.314266 0.600633 0.000000
H415  H     H_    0.323042 0.267731 0.604843 0.000000
H416  H     H_    0.337068 0.344639 0.620496 0.000000
H417  H     H_    0.165629 0.055511 0.653617 0.000000
H418  H     H_    0.180998 0.047884 0.684045 0.000000
H419  H     H_    0.275804 0.118629 0.694539 0.000000
H420  H     H_    0.352334 0.208297 0.675688 0.000000
C379  C     C_3   0.385604 0.101765 0.592463 0.000000
N127  N     N_3   0.411394 0.189366 0.593901 0.000000
C380  C     C_3   0.422345 0.204107 0.611304 0.000000
C381  C     C_R   0.463142 0.287681 0.613245 0.000000
N128  N     N_R   0.512216 0.318752 0.602753 0.000000
C382  C     C_R   0.542951 0.384980 0.611271 0.000000
C383  C     C_R   0.592227 0.446574 0.606073 0.000000
C384  C     C_R   0.616555 0.508963 0.616950 0.000000
C385  C     C_R   0.591528 0.508443 0.632919 0.000000
C386  C     C_R   0.540010 0.447821 0.637736 0.000000
C387  C     C_R   0.515331 0.389941 0.626184 0.000000
N129  N     N_R   0.462515 0.333390 0.627393 0.000000
H421  H     H_    0.371519 0.086628 0.579705 0.000000
H422  H     H_    0.417736 0.072702 0.594194 0.000000
H423  H     H_    0.348591 0.077064 0.601782 0.000000
H424  H     H_    0.381192 0.215576 0.591118 0.000000
H425  H     H_    0.382311 0.192422 0.618904 0.000000
H426  H     H_    0.442040 0.161148 0.615498 0.000000
H427  H     H_    0.609473 0.448747 0.593555 0.000000
H428  H     H_    0.654934 0.558875 0.612894 0.000000
H429  H     H_    0.611435 0.556627 0.641453 0.000000
H430  H     H_    0.518384 0.449331 0.649783 0.000000
C388  C     C_3   0.508817 0.573830 0.822886 0.000000
N130  N     N_3   0.515202 0.558561 0.805344 0.000000
C389  C     C_3   0.551594 0.635242 0.797559 0.000000
C390  C     C_R   0.554912 0.623231 0.779503 0.000000
N131  N     N_R   0.541626 0.545892 0.772887 0.000000
C391  C     C_R   0.512758 0.553390 0.759401 0.000000
C392  C     C_R   0.478772 0.492488 0.749655 0.000000
C393  C     C_R   0.447790 0.512879 0.737780 0.000000
C394  C     C_R   0.453483 0.592649 0.734915 0.000000
C395  C     C_R   0.486748 0.653117 0.744744 0.000000
C396  C     C_R   0.515783 0.632247 0.757089 0.000000
N132  N     N_R   0.544181 0.679488 0.769370 0.000000
H431  H     H_    0.480313 0.517693 0.829278 0.000000
H432  H     H_    0.551396 0.591009 0.828073 0.000000
H433  H     H_    0.489730 0.621994 0.824620 0.000000
H434  H     H_    0.474615 0.544210 0.800572 0.000000
H435  H     H_    0.531065 0.681241 0.799784 0.000000
H436  H     H_    0.594527 0.659874 0.802554 0.000000
H437  H     H_    0.474371 0.429553 0.751128 0.000000
H438  H     H_    0.420218 0.467044 0.730203 0.000000
H439  H     H_    0.431120 0.606449 0.724967 0.000000
H440  H     H_    0.486753 0.714059 0.743198 0.000000
C397  C     C_3   0.686366 0.123113 0.278644 0.000000
N133  N     N_3   0.628756 0.090690 0.286776 0.000000
C398  C     C_3   0.590914 0.114385 0.276420 0.000000
C399  C     C_R   0.530805 0.086783 0.283669 0.000000
N134  N     N_R   0.498564 0.006879 0.288963 0.000000
C400  C     C_R   0.454949 0.018486 0.298281 0.000000
C401  C     C_R   0.414528 0.963245 0.309047 0.000000
C402  C     C_R   0.385399 0.993091 0.321115 0.000000
C403  C     C_R   0.393103 0.075385 0.321300 0.000000
C404  C     C_R   0.428390 0.128239 0.309055 0.000000
C405  C     C_R   0.459868 0.098901 0.297825 0.000000
N135  N     N_R   0.504698 0.143435 0.287454 0.000000
H441  H     H_    0.716590 0.105983 0.286292 0.000000
H442  H     H_    0.686875 0.098060 0.265903 0.000000
H443  H     H_    0.700757 0.190712 0.277675 0.000000
H444  H     H_    0.631019 0.124346 0.297634 0.000000
H445  H     H_    0.604445 0.181016 0.277280 0.000000
H446  H     H_    0.593478 0.092872 0.263496 0.000000
H447  H     H_    0.409200 0.899554 0.309422 0.000000
H448  H     H_    0.356274 0.952301 0.330463 0.000000
H449  H     H_    0.370797 0.097822 0.331004 0.000000
H450  H     H_    0.433935 0.191698 0.309181 0.000000
C406  C     C_3   0.710847 0.870787 0.823732 0.000000
N136  N     N_3   0.757897 0.945179 0.818858 0.000000
C407  C     C_3   0.810872 0.928443 0.819512 0.000000
C408  C     C_R   0.859991 0.001551 0.813921 0.000000
N137  N     N_R   0.860909 0.049832 0.799711 0.000000
C409  C     C_R   0.909437 0.113475 0.801683 0.000000
C410  C     C_R   0.930506 0.182275 0.791734 0.000000
C411  C     C_R   0.983673 0.237879 0.794706 0.000000
C412  C     C_R   0.009716 0.231460 0.809209 0.000000
C413  C     C_R   0.983685 0.167063 0.820454 0.000000
C414  C     C_R   0.935900 0.104460 0.815780 0.000000
N138  N     N_R   0.906096 0.033152 0.824123 0.000000
H451  H     H_    0.670261 0.884063 0.824568 0.000000
H452  H     H_    0.707729 0.823226 0.814338 0.000000
H453  H     H_    0.718334 0.847764 0.835992 0.000000
H454  H     H_    0.758586 0.987924 0.828025 0.000000
H455  H     H_    0.817266 0.916458 0.832544 0.000000
H456  H     H_    0.809869 0.874634 0.812146 0.000000
H457  H     H_    0.908442 0.189492 0.781066 0.000000
H458  H     H_    0.004811 0.286376 0.785692 0.000000
H459  H     H_    0.050390 0.277486 0.811679 0.000000
H460  H     H_    0.001520 0.166899 0.832289 0.000000
C415  C     C_3   0.622799 0.072154 0.751188 0.000000
N139  N     N_3   0.655335 0.022168 0.756289 0.000000
C416  C     C_3   0.649232 0.012308 0.774445 0.000000
C417  C     C_R   0.674186 0.950744 0.779816 0.000000
N140  N     N_R   0.644322 0.867880 0.779008 0.000000
C418  C     C_R   0.686618 0.836349 0.780399 0.000000
C419  C     C_R   0.685775 0.759610 0.776777 0.000000
C420  C     C_R   0.736191 0.743445 0.777095 0.000000
C421  C     C_R   0.788021 0.804308 0.779447 0.000000
C422  C     C_R   0.789494 0.883117 0.781056 0.000000
C423  C     C_R   0.738043 0.896590 0.782261 0.000000
N141  N     N_R   0.732380 0.969734 0.781756 0.000000
H461  H     H_    0.617127 0.066399 0.737512 0.000000
H462  H     H_    0.579817 0.053038 0.757883 0.000000
H463  H     H_    0.647021 0.136392 0.753963 0.000000
H464  H     H_    0.698488 0.056582 0.753286 0.000000
H465  H     H_    0.672444 0.071434 0.780028 0.000000
H466  H     H_    0.603158 0.990716 0.778669 0.000000
H467  H     H_    0.649847 0.715194 0.771851 0.000000
H468  H     H_    0.735492 0.682975 0.774716 0.000000
H469  H     H_    0.827522 0.791089 0.778740 0.000000
H470  H     H_    0.830334 0.932102 0.780828 0.000000
C424  C     C_3   0.595327 0.712420 0.714886 0.000000
N142  N     N_3   0.574499 0.779140 0.717549 0.000000
C425  C     C_3   0.597771 0.821448 0.732580 0.000000
C426  C     C_R   0.561899 0.868095 0.738415 0.000000
N143  N     N_R   0.537747 0.906476 0.727703 0.000000
C427  C     C_R   0.498367 0.923160 0.737811 0.000000
C428  C     C_R   0.452538 0.941443 0.732820 0.000000
C429  C     C_R   0.411313 0.944756 0.744848 0.000000
C430  C     C_R   0.418208 0.933039 0.761652 0.000000
C431  C     C_R   0.462928 0.909182 0.766312 0.000000
C432  C     C_R   0.500500 0.898984 0.753887 0.000000
N144  N     N_R   0.540099 0.862061 0.754638 0.000000
H471  H     H_    0.570038 0.672950 0.705179 0.000000
H472  H     H_    0.640652 0.737860 0.710411 0.000000
H473  H     H_    0.591607 0.676797 0.726635 0.000000
H474  H     H_    0.529932 0.755519 0.718736 0.000000
H475  H     H_    0.598106 0.778874 0.742788 0.000000
H476  H     H_    0.641442 0.863552 0.729722 0.000000
H477  H     H_    0.445732 0.942595 0.719667 0.000000
H478  H     H_    0.373423 0.955838 0.741127 0.000000
H479  H     H_    0.386918 0.938623 0.771101 0.000000
H480  H     H_    0.466766 0.899592 0.779317 0.000000
C433  C     C_3   0.289945 0.550034 0.467461 0.000000
N145  N     N_3   0.269168 0.594273 0.455436 0.000000
C434  C     C_3   0.276217 0.673113 0.462484 0.000000
C435  C     C_R   0.243432 0.715355 0.453580 0.000000
N146  N     N_R   0.238074 0.712096 0.436421 0.000000
C436  C     C_R   0.193521 0.738640 0.434935 0.000000
C437  C     C_R   0.159234 0.728229 0.421804 0.000000
C438  C     C_R   0.112318 0.752865 0.423412 0.000000
C439  C     C_R   0.099017 0.785832 0.438135 0.000000
C440  C     C_R   0.130231 0.787498 0.451973 0.000000
C441  C     C_R   0.176701 0.762292 0.449970 0.000000
N147  N     N_R   0.206612 0.747497 0.462193 0.000000
H481  H     H_    0.294156 0.494858 0.461565 0.000000
H482  H     H_    0.332487 0.589435 0.471371 0.000000
H483  H     H_    0.259932 0.532429 0.478772 0.000000
H484  H     H_    0.225700 0.562682 0.454316 0.000000
H485  H     H_    0.259867 0.662770 0.475672 0.000000
H486  H     H_    0.321656 0.712077 0.461805 0.000000
H487  H     H_    0.166122 0.696942 0.410933 0.000000
H488  H     H_    0.084169 0.741536 0.413380 0.000000
H489  H     H_    0.060938 0.802442 0.439215 0.000000
H490  H     H_    0.117118 0.805332 0.463996 0.000000
C442  C     C_3   0.331350 0.769395 0.342569 0.000000
N148  N     N_3   0.296529 0.721120 0.329864 0.000000
C443  C     C_3   0.270340 0.769767 0.320818 0.000000
C444  C     C_R   0.212824 0.715260 0.316257 0.000000
N149  N     N_R   0.202099 0.669597 0.301691 0.000000
C445  C     C_R   0.145764 0.626746 0.304153 0.000000
C446  C     C_R   0.108895 0.585368 0.292549 0.000000
C447  C     C_R   0.054608 0.534617 0.297909 0.000000
C448  C     C_R   0.039811 0.526024 0.314878 0.000000
C449  C     C_R   0.074934 0.578336 0.325927 0.000000
C450  C     C_R   0.125640 0.637105 0.319740 0.000000
N150  N     N_R   0.165871 0.698007 0.327627 0.000000
H491  H     H_    0.353586 0.732978 0.348817 0.000000
H492  H     H_    0.363978 0.824960 0.336729 0.000000
H493  H     H_    0.302924 0.784715 0.352057 0.000000
H494  H     H_    0.263780 0.672939 0.335957 0.000000
H495  H     H_    0.264917 0.817830 0.329037 0.000000
H496  H     H_    0.297433 0.798667 0.309446 0.000000
H497  H     H_    0.119982 0.599604 0.279606 0.000000
H498  H     H_    0.025009 0.499380 0.289006 0.000000
H499  H     H_    0.000227 0.479539 0.319456 0.000000
H500  H     H_    0.064585 0.565109 0.338965 0.000000
C451  C     C_3   0.321182 0.864216 0.250000 0.000000
N151  N     N_3   0.347232 0.809652 0.256554 0.000000
C452  C     C_3   0.368546 0.843776 0.272253 0.000000
C453  C     C_R   0.376610 0.780172 0.282425 0.000000
N152  N     N_R   0.332362 0.708495 0.286933 0.000000
C454  C     C_R   0.354787 0.679666 0.299376 0.000000
C455  C     C_R   0.327065 0.612343 0.309544 0.000000
C456  C     C_R   0.356132 0.599564 0.322947 0.000000
C457  C     C_R   0.412905 0.648233 0.324714 0.000000
C458  C     C_R   0.441561 0.710773 0.313278 0.000000
C459  C     C_R   0.410252 0.729037 0.301420 0.000000
N153  N     N_R   0.425964 0.794088 0.290744 0.000000
H501  H     H_    0.301190 0.839699 0.238473 0.000000
H502  H     H_    0.285892 0.865998 0.258892 0.000000
H503  H     H_    0.354435 0.925408 0.247582 0.000000
H504  H     H_    0.382551 0.812213 0.248560 0.000000
H505  H     H_    0.409587 0.894847 0.270153 0.000000
H506  H     H_    0.337149 0.865216 0.279357 0.000000
H507  H     H_    0.282754 0.574940 0.308053 0.000000
H508  H     H_    0.335247 0.550856 0.331923 0.000000
H509  H     H_    0.435039 0.635661 0.334958 0.000000
H510  H     H_    0.486657 0.743738 0.313690 0.000000
C460  C     C_3   0.254702 0.005681 0.251421 0.000000
N154  N     N_3   0.258537 0.021115 0.233585 0.000000
C461  C     C_3   0.225159 0.945072 0.226567 0.000000
C462  C     C_R   0.241182 0.946839 0.208778 0.000000
N155  N     N_R   0.257211 0.018312 0.199050 0.000000
C463  C     C_R   0.280318 0.995178 0.185113 0.000000
C464  C     C_R   0.312759 0.043607 0.172133 0.000000
C465  C     C_R   0.340591 0.009684 0.160365 0.000000
C466  C     C_R   0.336967 0.929424 0.162157 0.000000
C467  C     C_R   0.307663 0.884218 0.175903 0.000000
C468  C     C_R   0.277795 0.916304 0.186638 0.000000
N156  N     N_R   0.253148 0.882209 0.201371 0.000000
H511  H     H_    0.214030 0.956077 0.255502 0.000000
H512  H     H_    0.291786 0.990401 0.254540 0.000000
H513  H     H_    0.257574 0.061238 0.258100 0.000000
H514  H     H_    0.301169 0.032933 0.229395 0.000000
H515  H     H_    0.236873 0.896687 0.232362 0.000000
H516  H     H_    0.178845 0.934438 0.228403 0.000000
H517  H     H_    0.320318 0.107085 0.171925 0.000000
H518  H     H_    0.368699 0.046777 0.150369 0.000000
H519  H     H_    0.359433 0.902507 0.153485 0.000000
H520  H     H_    0.313490 0.829030 0.179290 0.000000
C469  C     C_3   0.212370 0.889338 0.840188 0.000000
N157  N     N_3   0.257784 0.869132 0.847744 0.000000
C470  C     C_3   0.257974 0.795256 0.839783 0.000000
C471  C     C_R   0.289414 0.749787 0.848363 0.000000
N158  N     N_R   0.347500 0.762285 0.845144 0.000000
C472  C     C_R   0.349131 0.688512 0.849022 0.000000
C473  C     C_R   0.394188 0.661581 0.845973 0.000000
C474  C     C_R   0.386182 0.582799 0.850887 0.000000
C475  C     C_R   0.335953 0.536390 0.859663 0.000000
C476  C     C_R   0.294228 0.567985 0.863964 0.000000
C477  C     C_R   0.298593 0.640164 0.856603 0.000000
N159  N     N_R   0.258737 0.675843 0.856397 0.000000
H521  H     H_    0.172980 0.868524 0.848725 0.000000
H522  H     H_    0.226225 0.955326 0.837647 0.000000
H523  H     H_    0.202838 0.859977 0.827869 0.000000
H524  H     H_    0.296673 0.915733 0.845091 0.000000
H525  H     H_    0.213719 0.755044 0.841320 0.000000
H526  H     H_    0.271963 0.805362 0.826312 0.000000
H527  H     H_    0.432627 0.697739 0.838858 0.000000
H528  H     H_    0.418648 0.556822 0.847849 0.000000
H529  H     H_    0.327314 0.473711 0.862661 0.000000
H530  H     H_    0.261126 0.536479 0.873075 0.000000
C478  C     C_3   0.569281 0.085506 0.873800 0.000000
N160  N     N_3   0.513582 0.083582 0.868693 0.000000
C479  C     C_3   0.511926 0.069696 0.850768 0.000000
C480  C     C_R   0.452738 0.047899 0.844823 0.000000
N161  N     N_R   0.428714 0.971712 0.837599 0.000000
C481  C     C_R   0.390382 0.985558 0.828004 0.000000
C482  C     C_R   0.360835 0.937048 0.815628 0.000000
C483  C     C_R   0.321276 0.961357 0.807588 0.000000
C484  C     C_R   0.309346 0.029455 0.812999 0.000000
C485  C     C_R   0.340267 0.076780 0.825491 0.000000
C486  C     C_R   0.384566 0.058650 0.831509 0.000000
N162  N     N_R   0.423812 0.103093 0.842049 0.000000
H531  H     H_    0.588719 0.141295 0.880858 0.000000
H532  H     H_    0.563573 0.030748 0.881759 0.000000
H533  H     H_    0.598889 0.086915 0.862775 0.000000
H534  H     H_    0.507400 0.137967 0.871610 0.000000
H535  H     H_    0.542906 0.120368 0.843408 0.000000
H536  H     H_    0.525179 0.016315 0.848103 0.000000
H537  H     H_    0.368126 0.881943 0.812185 0.000000
H538  H     H_    0.296910 0.924203 0.797878 0.000000
H539  H     H_    0.274416 0.043772 0.807894 0.000000
H540  H     H_    0.326688 0.120771 0.831799 0.000000
C487  C     C_3   0.582227 0.063146 0.814384 0.000000
N163  N     N_3   0.533363 0.992311 0.810573 0.000000
C488  C     C_3   0.549974 0.921041 0.812502 0.000000
C489  C     C_R   0.502461 0.848092 0.807337 0.000000
N164  N     N_R   0.450550 0.819371 0.816246 0.000000
C490  C     C_R   0.417484 0.761415 0.806313 0.000000
C491  C     C_R   0.358646 0.720361 0.807431 0.000000
C492  C     C_R   0.333605 0.669331 0.794677 0.000000
C493  C     C_R   0.366509 0.664199 0.780510 0.000000
C494  C     C_R   0.424543 0.708978 0.779364 0.000000
C495  C     C_R   0.449478 0.753756 0.792636 0.000000
N165  N     N_R   0.504142 0.805809 0.793007 0.000000
H541  H     H_    0.569200 0.117656 0.815060 0.000000
H542  H     H_    0.598449 0.053155 0.826533 0.000000
H543  H     H_    0.616736 0.073243 0.804455 0.000000
H544  H     H_    0.525506 0.997808 0.797993 0.000000
H545  H     H_    0.589650 0.927981 0.804793 0.000000
H546  H     H_    0.557807 0.914241 0.825831 0.000000
H547  H     H_    0.330569 0.730538 0.816984 0.000000
H548  H     H_    0.287562 0.637587 0.795303 0.000000
H549  H     H_    0.346303 0.628984 0.769992 0.000000
H550  H     H_    0.448597 0.715538 0.767853 0.000000
C496  C     C_3   0.417283 0.913814 0.871786 0.000000
N166  N     N_3   0.417079 0.872134 0.887263 0.000000
C497  C     C_3   0.423401 0.796824 0.882375 0.000000
C498  C     C_R   0.479760 0.814351 0.874033 0.000000
N167  N     N_R   0.486687 0.821125 0.856685 0.000000
C499  C     C_R   0.532197 0.795326 0.853981 0.000000
C500  C     C_R   0.552381 0.771601 0.839265 0.000000
C501  C     C_R   0.595462 0.738908 0.839664 0.000000
C502  C     C_R   0.613372 0.720559 0.854696 0.000000
C503  C     C_R   0.590632 0.739664 0.869543 0.000000
C504  C     C_R   0.552023 0.779721 0.868888 0.000000
N168  N     N_R   0.521340 0.794914 0.881991 0.000000
H551  H     H_    0.396042 0.871466 0.862462 0.000000
H552  H     H_    0.392728 0.955101 0.872610 0.000000
H553  H     H_    0.461772 0.943030 0.867556 0.000000
H554  H     H_    0.455934 0.905749 0.892246 0.000000
H555  H     H_    0.418587 0.755597 0.892856 0.000000
H556  H     H_    0.390378 0.762633 0.874229 0.000000
H557  H     H_    0.533327 0.771626 0.827722 0.000000
H558  H     H_    0.612937 0.722733 0.828113 0.000000
H559  H     H_    0.643507 0.688475 0.854776 0.000000
H560  H     H_    0.601338 0.720233 0.881300 0.000000
C505  C     C_3   0.397323 0.447330 0.107223 0.000000
N169  N     N_3   0.427646 0.396727 0.099853 0.000000
C506  C     C_3   0.386253 0.318147 0.095616 0.000000
C507  C     C_R   0.398535 0.297897 0.077991 0.000000
N170  N     N_R   0.452881 0.329998 0.070121 0.000000
C508  C     C_R   0.443747 0.303192 0.054293 0.000000
C509  C     C_R   0.481058 0.324225 0.040256 0.000000
C510  C     C_R   0.461895 0.293920 0.024956 0.000000
C511  C     C_R   0.404322 0.251370 0.023631 0.000000
C512  C     C_R   0.366295 0.244398 0.037272 0.000000
C513  C     C_R   0.387279 0.262357 0.052717 0.000000
N171  N     N_R   0.356998 0.251735 0.067577 0.000000
H561  H     H_    0.429222 0.504849 0.111478 0.000000
H562  H     H_    0.371694 0.462907 0.097697 0.000000
H563  H     H_    0.369560 0.415291 0.118284 0.000000
H564  H     H_    0.451481 0.385549 0.109322 0.000000
H565  H     H_    0.391007 0.271932 0.104293 0.000000
H566  H     H_    0.342049 0.319177 0.096845 0.000000
H567  H     H_    0.524515 0.362083 0.040921 0.000000
H568  H     H_    0.491577 0.304763 0.014028 0.000000
H569  H     H_    0.389013 0.223676 0.011970 0.000000
H570  H     H_    0.321788 0.214812 0.036316 0.000000
C514  C     C_3   0.588668 0.232533 0.032670 0.000000
N172  N     N_3   0.562521 0.255709 0.047724 0.000000
C515  C     C_3   0.603532 0.279013 0.060662 0.000000
C516  C     C_R   0.633623 0.369882 0.060940 0.000000
N173  N     N_R   0.599198 0.417253 0.062518 0.000000
C517  C     C_R   0.617897 0.468281 0.049074 0.000000
C518  C     C_R   0.588768 0.512737 0.041981 0.000000
C519  C     C_R   0.594369 0.523224 0.024800 0.000000
C520  C     C_R   0.631013 0.493811 0.015449 0.000000
C521  C     C_R   0.666385 0.460028 0.023156 0.000000
C522  C     C_R   0.661577 0.452381 0.040393 0.000000
N174  N     N_R   0.679895 0.402071 0.049522 0.000000
H571  H     H_    0.557891 0.219601 0.022597 0.000000
H572  H     H_    0.628273 0.282824 0.028233 0.000000
H573  H     H_    0.598691 0.176518 0.035059 0.000000
H574  H     H_    0.528468 0.203961 0.052148 0.000000
H575  H     H_    0.580541 0.257872 0.072911 0.000000
H576  H     H_    0.634122 0.248308 0.057422 0.000000
H577  H     H_    0.557157 0.529964 0.049008 0.000000
H578  H     H_    0.566498 0.547946 0.018465 0.000000
H579  H     H_    0.631151 0.497491 0.002015 0.000000
H580  H     H_    0.693350 0.434447 0.015722 0.000000
C523  C     C_3   0.681594 0.660249 0.101937 0.000000
N175  N     N_3   0.622459 0.614893 0.098352 0.000000
C524  C     C_3   0.606461 0.645434 0.083418 0.000000
C525  C     C_R   0.543620 0.609971 0.082857 0.000000
N176  N     N_R   0.517072 0.527966 0.079198 0.000000
C526  C     C_R   0.470635 0.531452 0.071597 0.000000
C527  C     C_R   0.444076 0.480634 0.059339 0.000000
C528  C     C_R   0.402150 0.493813 0.050687 0.000000
C529  C     C_R   0.397154 0.568908 0.051455 0.000000
C530  C     C_R   0.434975 0.628521 0.060528 0.000000
C531  C     C_R   0.467504 0.607583 0.071879 0.000000
N177  N     N_R   0.511738 0.659691 0.079721 0.000000
H581  H     H_    0.687065 0.649233 0.115195 0.000000
H582  H     H_    0.710322 0.637690 0.094219 0.000000
H583  H     H_    0.693415 0.726207 0.099510 0.000000
H584  H     H_    0.594073 0.616644 0.108301 0.000000
H585  H     H_    0.618682 0.712025 0.083363 0.000000
H586  H     H_    0.626844 0.626895 0.072215 0.000000
H587  H     H_    0.466528 0.446900 0.053318 0.000000
H588  H     H_    0.381283 0.452090 0.041130 0.000000
H589  H     H_    0.370232 0.583458 0.042956 0.000000
H590  H     H_    0.442228 0.690303 0.057295 0.000000
C532  C     C_3   0.683625 0.421263 0.101425 0.000000
N178  N     N_3   0.660904 0.486374 0.103481 0.000000
C533  C     C_3   0.613950 0.461204 0.116248 0.000000
C534  C     C_R   0.579263 0.377015 0.113999 0.000000
N179  N     N_R   0.542905 0.352179 0.101022 0.000000
C535  C     C_R   0.523585 0.270037 0.103522 0.000000
C536  C     C_R   0.487996 0.210721 0.093834 0.000000
C537  C     C_R   0.478860 0.130300 0.097459 0.000000
C538  C     C_R   0.510050 0.110238 0.109318 0.000000
C539  C     C_R   0.544538 0.168869 0.119335 0.000000
C540  C     C_R   0.549597 0.248628 0.116614 0.000000
N180  N     N_R   0.586354 0.315386 0.123532 0.000000
H591  H     H_    0.659350 0.381161 0.091904 0.000000
H592  H     H_    0.729562 0.444280 0.097764 0.000000
H593  H     H_    0.681108 0.388263 0.113100 0.000000
H594  H     H_    0.642880 0.489342 0.092098 0.000000
H595  H     H_    0.630327 0.467886 0.128773 0.000000
H596  H     H_    0.584376 0.494813 0.115424 0.000000
H597  H     H_    0.470400 0.223105 0.082826 0.000000
H598  H     H_    0.451310 0.083392 0.089867 0.000000
H599  H     H_    0.510130 0.049095 0.109897 0.000000
H600  H     H_    0.569301 0.151665 0.128080 0.000000
C541  C     C_3   0.124349 0.383891 0.189411 0.000000
N181  N     N_3   0.117288 0.361054 0.171967 0.000000
C542  C     C_3   0.151564 0.430713 0.161396 0.000000
C543  C     C_R   0.140135 0.412934 0.143436 0.000000
N182  N     N_R   0.121175 0.332762 0.137153 0.000000
C544  C     C_R   0.082246 0.339249 0.126479 0.000000
C545  C     C_R   0.040692 0.277950 0.118980 0.000000
C546  C     C_R   0.996347 0.295797 0.112220 0.000000
C547  C     C_R   0.997504 0.374067 0.110841 0.000000
C548  C     C_R   0.043634 0.436371 0.116079 0.000000
C549  C     C_R   0.083052 0.417466 0.125085 0.000000
N183  N     N_R   0.121130 0.467603 0.135006 0.000000
H601  H     H_    0.099943 0.330331 0.197638 0.000000
H602  H     H_    0.170453 0.403576 0.192006 0.000000
H603  H     H_    0.107595 0.434050 0.192096 0.000000
H604  H     H_    0.074147 0.349489 0.169727 0.000000
H605  H     H_    0.138479 0.483335 0.164686 0.000000
H606  H     H_    0.197306 0.450777 0.163637 0.000000
H607  H     H_    0.039819 0.217064 0.118962 0.000000
H608  H     H_    0.959510 0.249282 0.107878 0.000000
H609  H     H_    0.962092 0.385353 0.105519 0.000000
H610  H     H_    0.048170 0.497666 0.112782 0.000000
C550  C     C_3   0.112059 0.943045 0.151756 0.000000
N184  N     N_3   0.110818 0.021117 0.157586 0.000000
C551  C     C_3   0.150348 0.045338 0.170899 0.000000
C552  C     C_R   0.170714 0.135352 0.173008 0.000000
N185  N     N_R   0.164963 0.191216 0.161299 0.000000
C553  C     C_R   0.198719 0.261597 0.167162 0.000000
C554  C     C_R   0.228640 0.326928 0.157052 0.000000
C555  C     C_R   0.272853 0.387354 0.163776 0.000000
C556  C     C_R   0.282866 0.384721 0.180693 0.000000
C557  C     C_R   0.255306 0.314803 0.190252 0.000000
C558  C     C_R   0.218032 0.250979 0.182289 0.000000
N186  N     N_R   0.206330 0.171365 0.185668 0.000000
H611  H     H_    0.074383 0.913299 0.144319 0.000000
H612  H     H_    0.151667 0.953246 0.143658 0.000000
H613  H     H_    0.110724 0.902454 0.162624 0.000000
H614  H     H_    0.069691 0.010563 0.163115 0.000000
H615  H     H_    0.128153 0.014680 0.182837 0.000000
H616  H     H_    0.188223 0.027044 0.167917 0.000000
H617  H     H_    0.222191 0.327444 0.143805 0.000000
H618  H     H_    0.301029 0.434800 0.155402 0.000000
H619  H     H_    0.318647 0.431460 0.185615 0.000000
H620  H     H_    0.268928 0.307005 0.202517 0.000000
C559  C     C_3   0.072358 0.043400 0.085551 0.000000
N187  N     N_3   0.080555 0.079345 0.102078 0.000000
C560  C     C_3   0.042826 0.022707 0.114616 0.000000
C561  C     C_R   0.018936 0.065904 0.127621 0.000000
N188  N     N_R   0.052752 0.123660 0.138127 0.000000
C562  C     C_R   0.015964 0.120343 0.151318 0.000000
C563  C     C_R   0.028426 0.160641 0.166151 0.000000
C564  C     C_R   0.986704 0.139829 0.179213 0.000000
C565  C     C_R   0.934600 0.077795 0.177343 0.000000
C566  C     C_R   0.922865 0.039086 0.162167 0.000000
C567  C     C_R   0.963048 0.065319 0.148817 0.000000
N189  N     N_R   0.961483 0.035080 0.133088 0.000000
H621  H     H_    0.101820 0.087150 0.076127 0.000000
H622  H     H_    0.082110 0.986399 0.085358 0.000000
H623  H     H_    0.027627 0.030261 0.082048 0.000000
H624  H     H_    0.068164 0.130080 0.101757 0.000000
H625  H     H_    0.006829 0.976419 0.108664 0.000000
H626  H     H_    0.067660 0.991125 0.121024 0.000000
H627  H     H_    0.069819 0.205745 0.167839 0.000000
H628  H     H_    0.995532 0.169873 0.191105 0.000000
H629  H     H_    0.902925 0.059389 0.187817 0.000000
H630  H     H_    0.882951 0.990259 0.161072 0.000000
C568  C     C_3   0.251070 0.377392 0.106984 0.000000
N190  N     N_3   0.188862 0.341343 0.107171 0.000000
C569  C     C_3   0.170752 0.274524 0.095535 0.000000
C570  C     C_R   0.191670 0.210073 0.101231 0.000000
N191  N     N_R   0.231138 0.183540 0.091953 0.000000
C571  C     C_R   0.254160 0.154889 0.104182 0.000000
C572  C     C_R   0.302619 0.134121 0.102305 0.000000
C573  C     C_R   0.327542 0.122498 0.116573 0.000000
C574  C     C_R   0.302831 0.130165 0.132080 0.000000
C575  C     C_R   0.251689 0.144550 0.133690 0.000000
C576  C     C_R   0.228288 0.159029 0.119517 0.000000
N192  N     N_R   0.186597 0.191642 0.118248 0.000000
H631  H     H_    0.269134 0.337374 0.113740 0.000000
H632  H     H_    0.269706 0.390491 0.093932 0.000000
H633  H     H_    0.262462 0.435053 0.113909 0.000000
H634  H     H_    0.174137 0.386566 0.103238 0.000000
H635  H     H_    0.123501 0.252194 0.095598 0.000000
H636  H     H_    0.186429 0.295273 0.082820 0.000000
H637  H     H_    0.323290 0.132190 0.090170 0.000000
H638  H     H_    0.367678 0.111113 0.115658 0.000000
H639  H     H_    0.325352 0.129495 0.143028 0.000000
H640  H     H_    0.234556 0.151120 0.145770 0.000000
C577  C     C_3   0.129455 0.894670 0.106561 0.000000
N193  N     N_3   0.164680 0.891642 0.091586 0.000000
C578  C     C_3   0.209295 0.971255 0.089703 0.000000
C579  C     C_R   0.247012 0.976969 0.074384 0.000000
N194  N     N_R   0.247659 0.908960 0.065425 0.000000
C580  C     C_R   0.260394 0.941260 0.049723 0.000000
C581  C     C_R   0.262353 0.902548 0.034929 0.000000
C582  C     C_R   0.299159 0.946026 0.021911 0.000000
C583  C     C_R   0.335572 0.024323 0.024763 0.000000
C584  C     C_R   0.327426 0.062286 0.039380 0.000000
C585  C     C_R   0.280766 0.023738 0.050074 0.000000
N195  N     N_R   0.268282 0.049861 0.065158 0.000000
H641  H     H_    0.126833 0.844799 0.115351 0.000000
H642  H     H_    0.147958 0.953267 0.113005 0.000000
H643  H     H_    0.085747 0.887936 0.103092 0.000000
H644  H     H_    0.138871 0.884483 0.081385 0.000000
H645  H     H_    0.188583 0.017553 0.088288 0.000000
H646  H     H_    0.235239 0.984060 0.100747 0.000000
H647  H     H_    0.233385 0.842550 0.033034 0.000000
H648  H     H_    0.302807 0.917070 0.010154 0.000000
H649  H     H_    0.370770 0.055112 0.015764 0.000000
H650  H     H_    0.363009 0.109777 0.043983 0.000000
C586  C     C_3   0.254342 0.070500 0.001305 0.000000
N196  N     N_3   0.261933 0.116137 0.016619 0.000000
C587  C     C_3   0.206365 0.105100 0.024814 0.000000
C588  C     C_R   0.207576 0.181713 0.033285 0.000000
N197  N     N_R   0.231262 0.207116 0.048631 0.000000
C589  C     C_R   0.223831 0.279264 0.050139 0.000000
C590  C     C_R   0.255160 0.344352 0.059198 0.000000
C591  C     C_R   0.241369 0.414412 0.058249 0.000000
C592  C     C_R   0.194280 0.414624 0.049537 0.000000
C593  C     C_R   0.166430 0.349640 0.039658 0.000000
C594  C     C_R   0.189848 0.289629 0.038282 0.000000
N198  N     N_R   0.183488 0.234029 0.026285 0.000000
H651  H     H_    0.297266 0.080688 0.995044 0.000000
H652  H     H_    0.232919 0.005225 0.004331 0.000000
H653  H     H_    0.228461 0.090652 0.992706 0.000000
H654  H     H_    0.280524 0.176858 0.013064 0.000000
H655  H     H_    0.174906 0.091857 0.015057 0.000000
H656  H     H_    0.193764 0.053348 0.034009 0.000000
H657  H     H_    0.288931 0.341224 0.066820 0.000000
H658  H     H_    0.265155 0.467558 0.065121 0.000000
H659  H     H_    0.182212 0.468388 0.049373 0.000000
H660  H     H_    0.132230 0.350931 0.032012 0.000000
C595  C     C_3   0.307780 0.016412 0.286886 0.000000
N199  N     N_3   0.309438 0.100534 0.286483 0.000000
C596  C     C_3   0.356105 0.151391 0.275060 0.000000
C597  C     C_R   0.376821 0.235404 0.281057 0.000000
N200  N     N_R   0.339854 0.277966 0.284454 0.000000
C598  C     C_R   0.375118 0.345362 0.291376 0.000000
C599  C     C_R   0.361845 0.409164 0.297786 0.000000
C600  C     C_R   0.406122 0.482992 0.297067 0.000000
C601  C     C_R   0.460043 0.486827 0.291153 0.000000
C602  C     C_R   0.474553 0.418336 0.291281 0.000000
C603  C     C_R   0.430373 0.346721 0.290468 0.000000
N201  N     N_R   0.434014 0.277749 0.284175 0.000000
H661  H     H_    0.312623 0.999476 0.299798 0.000000
H662  H     H_    0.265048 0.975004 0.283496 0.000000
H663  H     H_    0.341695 0.006766 0.278482 0.000000
H664  H     H_    0.318825 0.121761 0.298452 0.000000
H665  H     H_    0.393133 0.130191 0.274377 0.000000
H666  H     H_    0.339358 0.154595 0.262716 0.000000
H667  H     H_    0.318115 0.405954 0.300251 0.000000
H668  H     H_    0.397259 0.538284 0.298171 0.000000
H669  H     H_    0.491247 0.543676 0.286505 0.000000
H670  H     H_    0.517551 0.422829 0.287825 0.000000
C604  C     C_3   0.408704 0.609325 0.263864 0.000000
N202  N     N_3   0.349956 0.582962 0.270751 0.000000
C605  C     C_3   0.322786 0.497229 0.268200 0.000000
C606  C     C_R   0.267906 0.464632 0.278237 0.000000
N203  N     N_R   0.238797 0.380328 0.277854 0.000000
C607  C     C_R   0.185378 0.377807 0.275045 0.000000
C608  C     C_R   0.145860 0.315281 0.267249 0.000000
C609  C     C_R   0.096929 0.325415 0.261867 0.000000
C610  C     C_R   0.092398 0.401873 0.262192 0.000000
C611  C     C_R   0.136900 0.467293 0.267798 0.000000
C612  C     C_R   0.181379 0.454201 0.275443 0.000000
N204  N     N_R   0.232589 0.511707 0.278631 0.000000
H671  H     H_    0.437106 0.627506 0.274383 0.000000
H672  H     H_    0.418422 0.560179 0.257110 0.000000
H673  H     H_    0.415974 0.661933 0.255142 0.000000
H674  H     H_    0.328878 0.612974 0.263824 0.000000
H675  H     H_    0.312739 0.487913 0.255095 0.000000
H676  H     H_    0.350740 0.463969 0.270772 0.000000
H677  H     H_    0.156771 0.263892 0.263305 0.000000
H678  H     H_    0.065600 0.276387 0.255621 0.000000
H679  H     H_    0.057759 0.412349 0.256039 0.000000
H680  H     H_    0.141216 0.526851 0.263298 0.000000
C613  C     C_3   0.388206 0.388345 0.245525 0.000000
N205  N     N_3   0.338788 0.318318 0.250152 0.000000
C614  C     C_3   0.303116 0.300507 0.236146 0.000000
C615  C     C_R   0.259950 0.219824 0.239393 0.000000
N206  N     N_R   0.235358 0.167816 0.226635 0.000000
C616  C     C_R   0.186443 0.118742 0.234450 0.000000
C617  C     C_R   0.142815 0.058768 0.227259 0.000000
C618  C     C_R   0.100879 0.004702 0.237888 0.000000
C619  C     C_R   0.108209 0.006197 0.255010 0.000000
C620  C     C_R   0.153131 0.067835 0.261687 0.000000
C621  C     C_R   0.186656 0.131459 0.251375 0.000000
N207  N     N_R   0.232258 0.198471 0.255198 0.000000
H681  H     H_    0.407918 0.414787 0.257042 0.000000
H682  H     H_    0.417810 0.371255 0.236755 0.000000
H683  H     H_    0.373998 0.434155 0.239920 0.000000
H684  H     H_    0.315753 0.339054 0.259134 0.000000
H685  H     H_    0.280283 0.344774 0.235598 0.000000
H686  H     H_    0.328562 0.303167 0.224372 0.000000
H687  H     H_    0.142288 0.052322 0.213795 0.000000
H688  H     H_    0.066143 0.955882 0.232749 0.000000
H689  H     H_    0.080095 0.957114 0.263101 0.000000
H690  H     H_    0.165193 0.061035 0.274183 0.000000
C622  C     C_3   0.367069 0.274642 0.331021 0.000000
N208  N     N_3   0.323307 0.228322 0.319865 0.000000
C623  C     C_3   0.273207 0.249610 0.324142 0.000000
C624  C     C_R   0.220009 0.196280 0.316668 0.000000
N209  N     N_R   0.205838 0.197957 0.300068 0.000000
C625  C     C_R   0.151158 0.142646 0.300783 0.000000
C626  C     C_R   0.107885 0.130435 0.289880 0.000000
C627  C     C_R   0.055819 0.067625 0.293169 0.000000
C628  C     C_R   0.045278 0.022101 0.307956 0.000000
C629  C     C_R   0.085333 0.043572 0.319987 0.000000
C630  C     C_R   0.136872 0.106114 0.316208 0.000000
N210  N     N_R   0.176151 0.145068 0.327003 0.000000
H691  H     H_    0.410159 0.277300 0.326095 0.000000
H692  H     H_    0.367460 0.338125 0.332044 0.000000
H693  H     H_    0.358203 0.244913 0.343672 0.000000
H694  H     H_    0.311898 0.167390 0.323717 0.000000
H695  H     H_    0.265452 0.235408 0.337599 0.000000
H696  H     H_    0.280577 0.314311 0.321231 0.000000
H697  H     H_    0.113526 0.164753 0.278566 0.000000
H698  H     H_    0.022927 0.054759 0.284184 0.000000
H699  H     H_    0.004260 0.973852 0.310569 0.000000
H700  H     H_    0.074755 0.013906 0.332195 0.000000
C631  C     C_3   0.610977 0.538922 0.245608 0.000000
N211  N     N_3   0.574498 0.479935 0.257898 0.000000
C632  C     C_3   0.522031 0.430405 0.250429 0.000000
C633  C     C_R   0.525724 0.352128 0.244510 0.000000
N212  N     N_R   0.539065 0.298105 0.254787 0.000000
C634  C     C_R   0.559494 0.256295 0.243417 0.000000
C635  C     C_R   0.605777 0.230717 0.244835 0.000000
C636  C     C_R   0.627398 0.201877 0.230882 0.000000
C637  C     C_R   0.602477 0.198360 0.215733 0.000000
C638  C     C_R   0.560291 0.232228 0.214150 0.000000
C639  C     C_R   0.546738 0.271823 0.227709 0.000000
N213  N     N_R   0.527309 0.335157 0.227694 0.000000
H701  H     H_    0.650053 0.578485 0.251501 0.000000
H702  H     H_    0.623988 0.505991 0.235290 0.000000
H703  H     H_    0.588183 0.578902 0.241242 0.000000
H704  H     H_    0.563000 0.513722 0.267240 0.000000
H705  H     H_    0.488208 0.414364 0.260243 0.000000
H706  H     H_    0.511908 0.464335 0.240049 0.000000
H707  H     H_    0.631442 0.244554 0.255435 0.000000
H708  H     H_    0.664128 0.182657 0.231794 0.000000
H709  H     H_    0.618506 0.173775 0.204948 0.000000
H710  H     H_    0.543087 0.234078 0.202151 0.000000
C640  C     C_3   0.412365 0.126184 0.239868 0.000000
N214  N     N_3   0.392477 0.187235 0.232663 0.000000
C641  C     C_3   0.404022 0.185751 0.214738 0.000000
C642  C     C_R   0.389849 0.248140 0.205500 0.000000
N215  N     N_R   0.342373 0.221233 0.196135 0.000000
C643  C     C_R   0.359275 0.271069 0.182504 0.000000
C644  C     C_R   0.336715 0.260402 0.167002 0.000000
C645  C     C_R   0.362300 0.318924 0.154603 0.000000
C646  C     C_R   0.403390 0.391710 0.158761 0.000000
C647  C     C_R   0.426875 0.399349 0.174290 0.000000
C648  C     C_R   0.408703 0.333013 0.185036 0.000000
N216  N     N_R   0.431771 0.319378 0.199163 0.000000
H711  H     H_    0.377028 0.078614 0.246773 0.000000
H712  H     H_    0.427628 0.094420 0.229917 0.000000
H713  H     H_    0.446647 0.155449 0.248462 0.000000
H714  H     H_    0.418574 0.243399 0.236845 0.000000
H715  H     H_    0.449194 0.193811 0.211507 0.000000
H716  H     H_    0.375674 0.127141 0.210078 0.000000
H717  H     H_    0.299462 0.209199 0.164515 0.000000
H718  H     H_    0.345194 0.312270 0.142308 0.000000
H719  H     H_    0.417505 0.441579 0.149663 0.000000
H720  H     H_    0.460633 0.453844 0.177387 0.000000
C649  C     C_3   0.537386 0.510410 0.148665 0.000000
N217  N     N_3   0.561132 0.473650 0.161318 0.000000
C650  C     C_3   0.542868 0.385337 0.159640 0.000000
C651  C     C_R   0.572981 0.352894 0.171466 0.000000
N218  N     N_R   0.617781 0.330910 0.165345 0.000000
C652  C     C_R   0.650227 0.338743 0.178561 0.000000
C653  C     C_R   0.701584 0.326104 0.179007 0.000000
C654  C     C_R   0.731188 0.345323 0.193481 0.000000
C655  C     C_R   0.708942 0.376802 0.207041 0.000000
C656  C     C_R   0.656122 0.386883 0.206446 0.000000
C657  C     C_R   0.626870 0.366643 0.191916 0.000000
N219  N     N_R   0.575255 0.371595 0.188230 0.000000
H721  H     H_    0.509820 0.540887 0.154960 0.000000
H722  H     H_    0.572961 0.557286 0.141427 0.000000
H723  H     H_    0.512524 0.463773 0.139969 0.000000
H724  H     H_    0.551251 0.489997 0.173317 0.000000
H725  H     H_    0.496916 0.351625 0.160927 0.000000
H726  H     H_    0.556757 0.373139 0.147154 0.000000
H727  H     H_    0.717274 0.299446 0.168575 0.000000
H728  H     H_    0.771753 0.335767 0.194243 0.000000
H729  H     H_    0.732465 0.392008 0.218296 0.000000
H730  H     H_    0.638885 0.409932 0.217179 0.000000
C658  C     C_3   0.335278 0.501218 0.217000 0.000000
N220  N     N_3   0.394845 0.554854 0.217366 0.000000
C659  C     C_3   0.428166 0.512639 0.208616 0.000000
C660  C     C_R   0.490441 0.557357 0.208755 0.000000
N221  N     N_R   0.517090 0.641773 0.210160 0.000000
C661  C     C_R   0.572641 0.647866 0.209924 0.000000
C662  C     C_R   0.618017 0.714557 0.213863 0.000000
C663  C     C_R   0.671671 0.707606 0.214481 0.000000
C664  C     C_R   0.679726 0.636518 0.209268 0.000000
C665  C     C_R   0.633056 0.570047 0.205084 0.000000
C666  C     C_R   0.579197 0.574758 0.207173 0.000000
N222  N     N_R   0.527704 0.514197 0.207036 0.000000
H731  H     H_    0.313639 0.499135 0.229224 0.000000
H732  H     H_    0.312722 0.523178 0.207864 0.000000
H733  H     H_    0.331856 0.438491 0.213754 0.000000
H734  H     H_    0.406464 0.562138 0.229723 0.000000
H735  H     H_    0.420648 0.452400 0.214413 0.000000
H736  H     H_    0.414905 0.502978 0.195747 0.000000
H737  H     H_    0.610394 0.767829 0.217903 0.000000
H738  H     H_    0.707877 0.759055 0.218128 0.000000
H739  H     H_    0.722406 0.632926 0.208541 0.000000
H740  H     H_    0.639088 0.516590 0.200514 0.000000
C667  C     C_3   0.077376 0.014449 0.964233 0.000000
N223  N     N_3   0.109796 0.086004 0.973301 0.000000
C668  C     C_3   0.147084 0.146108 0.961256 0.000000
C669  C     C_R   0.202383 0.190406 0.968649 0.000000
N224  N     N_R   0.206782 0.227068 0.984123 0.000000
C670  C     C_R   0.264263 0.255201 0.985544 0.000000
C671  C     C_R   0.295144 0.305445 0.997386 0.000000
C672  C     C_R   0.354694 0.329753 0.995748 0.000000
C673  C     C_R   0.381806 0.298621 0.983306 0.000000
C674  C     C_R   0.349687 0.245909 0.971869 0.000000
C675  C     C_R   0.291583 0.230710 0.972573 0.000000
N225  N     N_R   0.254612 0.194120 0.960980 0.000000
H741  H     H_    0.040890 0.975350 0.972471 0.000000
H742  H     H_    0.061113 0.032858 0.952830 0.000000
H743  H     H_    0.104738 0.978537 0.960612 0.000000
H744  H     H_    0.135625 0.068110 0.981189 0.000000
H745  H     H_    0.156798 0.115496 0.950361 0.000000
H746  H     H_    0.125723 0.187266 0.956748 0.000000
H747  H     H_    0.273781 0.324177 0.007766 0.000000
H748  H     H_    0.380685 0.369281 0.004829 0.000000
H749  H     H_    0.428046 0.314539 0.982767 0.000000
H750  H     H_    0.369975 0.218841 0.962548 0.000000
C676  C     C_3   0.915249 0.232866 0.978255 0.000000
N226  N     N_3   0.934835 0.178330 0.987953 0.000000
C677  C     C_3   0.996939 0.205248 0.985948 0.000000
C678  C     C_R   0.018594 0.142014 0.992601 0.000000
N227  N     N_R   0.066898 0.162716 0.002111 0.000000
C679  C     C_R   0.057263 0.092767 0.010687 0.000000
C680  C     C_R   0.075791 0.082929 0.026137 0.000000
C681  C     C_R   0.066102 0.004794 0.031962 0.000000
C682  C     C_R   0.033762 0.939741 0.022868 0.000000
C683  C     C_R   0.005745 0.953148 0.009243 0.000000
C684  C     C_R   0.014021 0.031279 0.004440 0.000000
N228  N     N_R   0.985345 0.059132 0.993444 0.000000
H751  H     H_    0.873280 0.231743 0.983879 0.000000
H752  H     H_    0.946672 0.296157 0.978192 0.000000
H753  H     H_    0.908775 0.210271 0.965384 0.000000
H754  H     H_    0.917477 0.121004 0.982983 0.000000
H755  H     H_    0.009684 0.217580 0.972548 0.000000
H756  H     H_    0.015079 0.261545 0.993180 0.000000
H757  H     H_    0.093903 0.133434 0.034103 0.000000
H758  H     H_    0.082867 0.994507 0.043656 0.000000
H759  H     H_    0.028836 0.878659 0.026827 0.000000
H760  H     H_    0.982424 0.904484 0.001692 0.000000
C685  C     C_3   0.339671 0.503399 0.007109 0.000000
N229  N     N_3   0.285912 0.492430 0.999311 0.000000
C686  C     C_3   0.240240 0.470523 0.012507 0.000000
C687  C     C_R   0.183136 0.444939 0.005017 0.000000
N230  N     N_R   0.165042 0.501910 0.997367 0.000000
C688  C     C_R   0.136944 0.460476 0.984614 0.000000
C689  C     C_R   0.116470 0.490364 0.971527 0.000000
C690  C     C_R   0.088515 0.435311 0.959828 0.000000
C691  C     C_R   0.087649 0.355747 0.960344 0.000000
C692  C     C_R   0.111633 0.329109 0.973274 0.000000
C693  C     C_R   0.133020 0.381605 0.985625 0.000000
N231  N     N_R   0.158472 0.367091 0.998976 0.000000
H761  H     H_    0.374552 0.511120 0.997235 0.000000
H762  H     H_    0.350556 0.557561 0.014998 0.000000
H763  H     H_    0.336000 0.451348 0.015501 0.000000
H764  H     H_    0.278004 0.444610 0.990953 0.000000
H765  H     H_    0.244661 0.419563 0.019393 0.000000
H766  H     H_    0.245116 0.522483 0.020940 0.000000
H767  H     H_    0.119762 0.553338 0.970742 0.000000
H768  H     H_    0.066721 0.454092 0.950419 0.000000
H769  H     H_    0.067252 0.313690 0.950875 0.000000
H770  H     H_    0.111044 0.267958 0.974341 0.000000
C694  C     C_3   0.750977 0.785329 0.069221 0.000000
N232  N     N_3   0.792289 0.864499 0.071543 0.000000
C695  C     C_3   0.778283 0.892457 0.087717 0.000000
C696  C     C_R   0.818414 0.974964 0.088705 0.000000
N233  N     N_R   0.865858 0.997485 0.098637 0.000000
C697  C     C_R   0.897160 0.070056 0.091332 0.000000
C698  C     C_R   0.953670 0.112866 0.092924 0.000000
C699  C     C_R   0.980956 0.179401 0.082254 0.000000
C700  C     C_R   0.948488 0.209644 0.072399 0.000000
C701  C     C_R   0.890662 0.165870 0.071334 0.000000
C702  C     C_R   0.868708 0.091431 0.079095 0.000000
N234  N     N_R   0.819282 0.031183 0.076297 0.000000
H771  H     H_    0.755684 0.769099 0.056027 0.000000
H772  H     H_    0.759926 0.743378 0.077893 0.000000
H773  H     H_    0.707146 0.785323 0.072058 0.000000
H774  H     H_    0.786463 0.901773 0.062131 0.000000
H775  H     H_    0.734935 0.896177 0.087924 0.000000
H776  H     H_    0.782497 0.853605 0.098205 0.000000
H777  H     H_    0.976004 0.091746 0.101570 0.000000
H778  H     H_    0.026554 0.212370 0.082798 0.000000
H779  H     H_    0.968576 0.266744 0.065568 0.000000
H780  H     H_    0.862330 0.189615 0.065443 0.000000
C703  C     C_3   0.896042 0.164705 0.134287 0.000000
N235  N     N_3   0.854002 0.096846 0.143683 0.000000
C704  C     C_3   0.804830 0.065464 0.133777 0.000000
C705  C     C_R   0.778640 0.976335 0.135756 0.000000
N236  N     N_R   0.815839 0.935162 0.137360 0.000000
C706  C     C_R   0.788277 0.878812 0.149368 0.000000
C707  C     C_R   0.811117 0.835430 0.159433 0.000000
C708  C     C_R   0.777012 0.787443 0.172418 0.000000
C709  C     C_R   0.719792 0.779603 0.174315 0.000000
C710  C     C_R   0.697916 0.825161 0.164516 0.000000
C711  C     C_R   0.734067 0.879320 0.152820 0.000000
N237  N     N_R   0.724575 0.938558 0.143710 0.000000
H781  H     H_    0.924276 0.207195 0.143085 0.000000
H782  H     H_    0.921851 0.141012 0.125536 0.000000
H783  H     H_    0.875387 0.197699 0.126513 0.000000
H784  H     H_    0.840649 0.120025 0.154568 0.000000
H785  H     H_    0.774587 0.092718 0.139220 0.000000
H786  H     H_    0.819698 0.077848 0.120501 0.000000
H787  H     H_    0.855155 0.842945 0.158357 0.000000
H788  H     H_    0.794158 0.752655 0.180462 0.000000
H789  H     H_    0.690991 0.735209 0.182907 0.000000
H790  H     H_    0.652963 0.813258 0.165733 0.000000
C712  C     C_3   0.950510 0.841211 0.069011 0.000000
N238  N     N_3   0.939681 0.853903 0.086603 0.000000
C713  C     C_3   0.888495 0.787706 0.092832 0.000000
C714  C     C_R   0.891241 0.780145 0.111013 0.000000
N239  N     N_R   0.893767 0.710666 0.118661 0.000000
C715  C     C_R   0.911193 0.737953 0.133875 0.000000
C716  C     C_R   0.911498 0.692687 0.147807 0.000000
C717  C     C_R   0.935288 0.732116 0.161972 0.000000
C718  C     C_R   0.959351 0.816176 0.161684 0.000000
C719  C     C_R   0.952927 0.860487 0.148040 0.000000
C720  C     C_R   0.923233 0.819034 0.134777 0.000000
N240  N     N_R   0.905097 0.846975 0.121145 0.000000
H791  H     H_    0.953816 0.780240 0.067273 0.000000
H792  H     H_    0.914889 0.846510 0.061886 0.000000
H793  H     H_    0.992163 0.887309 0.064458 0.000000
H794  H     H_    0.931015 0.908031 0.087544 0.000000
H795  H     H_    0.849814 0.800474 0.089932 0.000000
H796  H     H_    0.887889 0.729460 0.087450 0.000000
H797  H     H_    0.889748 0.628781 0.148009 0.000000
H798  H     H_    0.935491 0.697514 0.173171 0.000000
H799  H     H_    0.980439 0.847499 0.172482 0.000000
H800  H     H_    0.970952 0.924778 0.148404 0.000000
C721  C     C_3   0.953952 0.022924 0.053833 0.000000
N241  N     N_3   0.920096 0.049039 0.042473 0.000000
C722  C     C_3   0.888226 0.977677 0.033327 0.000000
C723  C     C_R   0.844983 0.995814 0.023857 0.000000
N242  N     N_R   0.801771 0.017384 0.031871 0.000000
C724  C     C_R   0.774135 0.031133 0.018870 0.000000
C725  C     C_R   0.725366 0.051343 0.019715 0.000000
C726  C     C_R   0.708865 0.076022 0.005037 0.000000
C727  C     C_R   0.743187 0.084033 0.990355 0.000000
C728  C     C_R   0.789453 0.057569 0.989685 0.000000
C729  C     C_R   0.801840 0.025007 0.003970 0.000000
N243  N     N_R   0.846153 0.998677 0.006388 0.000000
H801  H     H_    0.992183 0.075636 0.056853 0.000000
H802  H     H_    0.927298 0.995151 0.065267 0.000000
H803  H     H_    0.967723 0.975866 0.047832 0.000000
H804  H     H_    0.949387 0.089309 0.033803 0.000000
H805  H     H_    0.917421 0.963784 0.024219 0.000000
H806  H     H_    0.867037 0.924890 0.042032 0.000000
H807  H     H_    0.701867 0.051254 0.031467 0.000000
H808  H     H_    0.671758 0.095006 0.005277 0.000000
H809  H     H_    0.734577 0.112663 0.979300 0.000000
H810  H     H_    0.816926 0.069568 0.978567 0.000000
C730  C     C_3   0.910791 0.212982 0.021921 0.000000
N244  N     N_3   0.875762 0.216926 0.036578 0.000000
C731  C     C_3   0.826980 0.235406 0.031205 0.000000
C732  C     C_R   0.783688 0.221818 0.045505 0.000000
N245  N     N_R   0.761316 0.148290 0.054562 0.000000
C733  C     C_R   0.729521 0.167141 0.066788 0.000000
C734  C     C_R   0.693266 0.116059 0.078639 0.000000
C735  C     C_R   0.656261 0.144832 0.087991 0.000000
C736  C     C_R   0.664837 0.227130 0.087532 0.000000
C737  C     C_R   0.708994 0.280134 0.077304 0.000000
C738  C     C_R   0.734265 0.246166 0.065607 0.000000
N246  N     N_R   0.765738 0.283479 0.051912 0.000000
H811  H     H_    0.956631 0.233841 0.024979 0.000000
H812  H     H_    0.897705 0.149862 0.017771 0.000000
H813  H     H_    0.904058 0.251606 0.011900 0.000000
H814  H     H_    0.900282 0.267528 0.043062 0.000000
H815  H     H_    0.842117 0.300033 0.027320 0.000000
H816  H     H_    0.808102 0.197411 0.020541 0.000000
H817  H     H_    0.692928 0.054913 0.080512 0.000000
H818  H     H_    0.624573 0.104946 0.096937 0.000000
H819  H     H_    0.638819 0.249524 0.095922 0.000000
H820  H     H_    0.719107 0.344839 0.076713 0.000000
C739  C     C_3   0.539947 0.055278 0.066744 0.000000
N247  N     N_3   0.569491 0.004133 0.073335 0.000000
C740  C     C_3   0.607704 0.991452 0.060031 0.000000
C741  C     C_R   0.631956 0.928932 0.065188 0.000000
N248  N     N_R   0.685125 0.936517 0.057514 0.000000
C742  C     C_R   0.672115 0.864760 0.049373 0.000000
C743  C     C_R   0.702877 0.843652 0.036454 0.000000
C744  C     C_R   0.674944 0.776860 0.027088 0.000000
C745  C     C_R   0.618295 0.729546 0.031215 0.000000
C746  C     C_R   0.589747 0.745953 0.045270 0.000000
C747  C     C_R   0.617614 0.814289 0.054035 0.000000
N249  N     N_R   0.593045 0.850032 0.065371 0.000000
H821  H     H_    0.493056 0.025323 0.069363 0.000000
H822  H     H_    0.554377 0.114601 0.072944 0.000000
H823  H     H_    0.549431 0.066432 0.053077 0.000000
H824  H     H_    0.538826 0.948124 0.077118 0.000000
H825  H     H_    0.585509 0.969816 0.048583 0.000000
H826  H     H_    0.640422 0.048612 0.055270 0.000000
H827  H     H_    0.746972 0.876857 0.033198 0.000000
H828  H     H_    0.696843 0.763703 0.016030 0.000000
H829  H     H_    0.595764 0.681677 0.023050 0.000000
H830  H     H_    0.544860 0.711866 0.047904 0.000000
C748  C     C_3   0.637492 0.757550 0.131049 0.000000
N250  N     N_3   0.615406 0.754168 0.114684 0.000000
C749  C     C_3   0.635033 0.835369 0.107520 0.000000
C750  C     C_R   0.589858 0.866827 0.111801 0.000000
N251  N     N_R   0.539218 0.843321 0.103657 0.000000
C751  C     C_R   0.507529 0.877123 0.113407 0.000000
C752  C     C_R   0.452081 0.873984 0.111964 0.000000
C753  C     C_R   0.429187 0.914781 0.123535 0.000000
C754  C     C_R   0.461686 0.957932 0.136268 0.000000
C755  C     C_R   0.516599 0.958512 0.137864 0.000000
C756  C     C_R   0.538078 0.917163 0.126407 0.000000
N252  N     N_R   0.589667 0.908860 0.126298 0.000000
H831  H     H_    0.620435 0.696263 0.137170 0.000000
H832  H     H_    0.684730 0.777176 0.129382 0.000000
H833  H     H_    0.624491 0.801137 0.138735 0.000000
H834  H     H_    0.570658 0.731933 0.115899 0.000000
H835  H     H_    0.675497 0.873788 0.112869 0.000000
H836  H     H_    0.640541 0.834039 0.093760 0.000000
H837  H     H_    0.426282 0.840709 0.102458 0.000000
H838  H     H_    0.386130 0.914524 0.122397 0.000000
H839  H     H_    0.445032 0.993219 0.144732 0.000000
H840  H     H_    0.541203 0.988006 0.148117 0.000000
C757  C     C_3   0.485953 0.699182 0.145716 0.000000
N253  N     N_3   0.515926 0.722343 0.161092 0.000000
C758  C     C_3   0.512520 0.800681 0.165900 0.000000
C759  C     C_R   0.562164 0.847683 0.175532 0.000000
N254  N     N_R   0.565451 0.835664 0.192513 0.000000
C760  C     C_R   0.615342 0.897145 0.195798 0.000000
C761  C     C_R   0.640466 0.921072 0.210900 0.000000
C762  C     C_R   0.691333 0.987369 0.210871 0.000000
C763  C     C_R   0.716421 0.029840 0.196087 0.000000
C764  C     C_R   0.690165 0.007327 0.181177 0.000000
C765  C     C_R   0.639390 0.941903 0.181540 0.000000
N255  N     N_R   0.607603 0.912085 0.168434 0.000000
H841  H     H_    0.484874 0.637823 0.141971 0.000000
H842  H     H_    0.441464 0.698566 0.147713 0.000000
H843  H     H_    0.507792 0.743158 0.135447 0.000000
H844  H     H_    0.558864 0.728700 0.158733 0.000000
H845  H     H_    0.513159 0.835791 0.154615 0.000000
H846  H     H_    0.471942 0.793400 0.173190 0.000000
H847  H     H_    0.621906 0.891559 0.222739 0.000000
H848  H     H_    0.711586 0.006470 0.222551 0.000000
H849  H     H_    0.756190 0.081384 0.196271 0.000000
H850  H     H_    0.709001 0.040867 0.169655 0.000000
C766  C     C_3   0.498979 0.102587 0.172233 0.000000
N256  N     N_3   0.544627 0.132614 0.159295 0.000000
C767  C     C_3   0.596545 0.124655 0.165370 0.000000
C768  C     C_R   0.639390 0.138253 0.150962 0.000000
N257  N     N_R   0.654602 0.076408 0.143713 0.000000
C769  C     C_R   0.684778 0.112912 0.129785 0.000000
C770  C     C_R   0.708373 0.079038 0.117324 0.000000
C771  C     C_R   0.752945 0.132753 0.107404 0.000000
C772  C     C_R   0.762051 0.214982 0.107474 0.000000
C773  C     C_R   0.724695 0.242293 0.117091 0.000000
C774  C     C_R   0.690640 0.192088 0.129175 0.000000
N258  N     N_R   0.660770 0.211116 0.141921 0.000000
H851  H     H_    0.463285 0.123964 0.169340 0.000000
H852  H     H_    0.483538 0.035032 0.172519 0.000000
H853  H     H_    0.515107 0.125813 0.184519 0.000000
H854  H     H_    0.551438 0.194107 0.157143 0.000000
H855  H     H_    0.614033 0.170152 0.175056 0.000000
H856  H     H_    0.586819 0.062699 0.170881 0.000000
H857  H     H_    0.699751 0.014341 0.116939 0.000000
H858  H     H_    0.777905 0.110116 0.098616 0.000000
H859  H     H_    0.793431 0.255312 0.098500 0.000000
H860  H     H_    0.722668 0.301498 0.115328 0.000000
C775  C     C_3   0.267805 0.922834 0.367447 0.000000
N259  N     N_3   0.284024 0.897054 0.383040 0.000000
C776  C     C_3   0.235647 0.832011 0.391099 0.000000
C777  C     C_R   0.230579 0.750457 0.384241 0.000000
N260  N     N_R   0.199470 0.718810 0.370218 0.000000
C778  C     C_R   0.203944 0.644754 0.369468 0.000000
C779  C     C_R   0.179073 0.585346 0.358327 0.000000
C780  C     C_R   0.181184 0.508962 0.360871 0.000000
C781  C     C_R   0.210463 0.495126 0.374026 0.000000
C782  C     C_R   0.243217 0.559104 0.383241 0.000000
C783  C     C_R   0.234766 0.631857 0.382035 0.000000
N261  N     N_R   0.250932 0.695813 0.392433 0.000000
H861  H     H_    0.306134 0.966859 0.360639 0.000000
H862  H     H_    0.250147 0.870064 0.359311 0.000000
H863  H     H_    0.236530 0.953480 0.370257 0.000000
H864  H     H_    0.294086 0.946876 0.390972 0.000000
H865  H     H_    0.244013 0.832216 0.404557 0.000000
H866  H     H_    0.195176 0.843209 0.389587 0.000000
H867  H     H_    0.153156 0.594581 0.348990 0.000000
H868  H     H_    0.158933 0.459834 0.352812 0.000000
H869  H     H_    0.208618 0.434169 0.376896 0.000000
H870  H     H_    0.275630 0.551744 0.390458 0.000000
C784  C     C_3   0.756938 0.319559 0.651574 0.000000
N262  N     N_3   0.810208 0.387542 0.652790 0.000000
C785  C     C_3   0.824477 0.400301 0.670221 0.000000
C786  C     C_R   0.866133 0.484082 0.671198 0.000000
N263  N     N_R   0.905747 0.518263 0.658001 0.000000
C787  C     C_R   0.935439 0.592639 0.664160 0.000000
C788  C     C_R   0.977673 0.657876 0.656243 0.000000
C789  C     C_R   0.003930 0.726481 0.665281 0.000000
C790  C     C_R   0.988672 0.728773 0.682128 0.000000
C791  C     C_R   0.942595 0.666223 0.689411 0.000000
C792  C     C_R   0.914877 0.601014 0.679866 0.000000
N264  N     N_R   0.868673 0.535854 0.684603 0.000000
H871  H     H_    0.741020 0.321835 0.639171 0.000000
H872  H     H_    0.765119 0.261426 0.652748 0.000000
H873  H     H_    0.723452 0.324743 0.660700 0.000000
H874  H     H_    0.803748 0.439287 0.648175 0.000000
H875  H     H_    0.786308 0.392348 0.678745 0.000000
H876  H     H_    0.845074 0.356451 0.674024 0.000000
H877  H     H_    0.989761 0.658067 0.643294 0.000000
H878  H     H_    0.037306 0.777501 0.659160 0.000000
H879  H     H_    0.012391 0.779492 0.689554 0.000000
H880  H     H_    0.931854 0.665598 0.702524 0.000000
C793  C     C_3   0.711345 0.251931 0.729542 0.000000
N265  N     N_3   0.672193 0.287317 0.722880 0.000000
C794  C     C_3   0.697607 0.374538 0.724677 0.000000
C795  C     C_R   0.689406 0.418324 0.709621 0.000000
N266  N     N_R   0.640325 0.387017 0.700871 0.000000
C796  C     C_R   0.657794 0.422275 0.685708 0.000000
C797  C     C_R   0.630495 0.396384 0.671542 0.000000
C798  C     C_R   0.657644 0.427819 0.656397 0.000000
C799  C     C_R   0.711955 0.485652 0.655765 0.000000
C800  C     C_R   0.741031 0.508970 0.670265 0.000000
C801  C     C_R   0.713110 0.474737 0.685374 0.000000
N267  N     N_R   0.734484 0.477439 0.700720 0.000000
H881  H     H_    0.694693 0.185483 0.727716 0.000000
H882  H     H_    0.753544 0.277501 0.722570 0.000000
H883  H     H_    0.715737 0.265215 0.743085 0.000000
H884  H     H_    0.634349 0.266766 0.730577 0.000000
H885  H     H_    0.676491 0.388564 0.735885 0.000000
H886  H     H_    0.743984 0.392009 0.726046 0.000000
H887  H     H_    0.592554 0.345341 0.672381 0.000000
H888  H     H_    0.637803 0.403855 0.645008 0.000000
H889  H     H_    0.732922 0.506266 0.643639 0.000000
H890  H     H_    0.784886 0.550072 0.669299 0.000000
C802  C     C_3   0.670326 0.631702 0.684571 0.000000
N268  N     N_3   0.711551 0.692724 0.694240 0.000000
C803  C     C_3   0.769058 0.701175 0.687821 0.000000
C804  C     C_R   0.809931 0.733154 0.700831 0.000000
N269  N     N_R   0.827502 0.812412 0.707271 0.000000
C805  C     C_R   0.862775 0.804652 0.719220 0.000000
C806  C     C_R   0.894335 0.862098 0.730093 0.000000
C807  C     C_R   0.926926 0.841610 0.741553 0.000000
C808  C     C_R   0.928596 0.763825 0.742117 0.000000
C809  C     C_R   0.897691 0.706719 0.731180 0.000000
C810  C     C_R   0.864970 0.727631 0.719810 0.000000
N270  N     N_R   0.832087 0.679680 0.708259 0.000000
H891  H     H_    0.629490 0.643421 0.684630 0.000000
H892  H     H_    0.687628 0.630961 0.671489 0.000000
H893  H     H_    0.659506 0.571951 0.690661 0.000000
H894  H     H_    0.706940 0.668931 0.706459 0.000000
H895  H     H_    0.770358 0.640429 0.685769 0.000000
H896  H     H_    0.782678 0.735992 0.675855 0.000000
H897  H     H_    0.895585 0.922917 0.729808 0.000000
H898  H     H_    0.951723 0.887025 0.749974 0.000000
H899  H     H_    0.954836 0.747969 0.750925 0.000000
H900  H     H_    0.902000 0.648663 0.731329 0.000000
C811  C     C_3   0.593088 0.193141 0.780640 0.000000
N271  N     N_3   0.611638 0.276300 0.786365 0.000000
C812  C     C_3   0.657067 0.325933 0.774579 0.000000
C813  C     C_R   0.678482 0.410117 0.780831 0.000000
N272  N     N_R   0.642696 0.454068 0.784345 0.000000
C814  C     C_R   0.678425 0.520762 0.791389 0.000000
C815  C     C_R   0.663462 0.572390 0.801757 0.000000
C816  C     C_R   0.706729 0.633512 0.809150 0.000000
C817  C     C_R   0.764052 0.644945 0.804848 0.000000
C818  C     C_R   0.777949 0.589310 0.794752 0.000000
C819  C     C_R   0.733348 0.521928 0.790151 0.000000
N273  N     N_R   0.735487 0.451203 0.784005 0.000000
H901  H     H_    0.627655 0.168086 0.782288 0.000000
H902  H     H_    0.553559 0.155846 0.788056 0.000000
H903  H     H_    0.583229 0.191901 0.767261 0.000000
H904  H     H_    0.629628 0.276666 0.797896 0.000000
H905  H     H_    0.692621 0.301444 0.773514 0.000000
H906  H     H_    0.640024 0.326382 0.762097 0.000000
H907  H     H_    0.619149 0.557217 0.805698 0.000000
H908  H     H_    0.695942 0.673653 0.817937 0.000000
H909  H     H_    0.797824 0.695655 0.809846 0.000000
H910  H     H_    0.822232 0.596483 0.791571 0.000000
C820  C     C_3   0.720741 0.608445 0.745213 0.000000
N274  N     N_3   0.744988 0.554554 0.736559 0.000000
C821  C     C_3   0.765589 0.516996 0.749557 0.000000
C822  C     C_R   0.816209 0.496805 0.744177 0.000000
N275  N     N_R   0.841541 0.507841 0.728017 0.000000
C823  C     C_R   0.893260 0.501834 0.730598 0.000000
C824  C     C_R   0.939004 0.515273 0.719038 0.000000
C825  C     C_R   0.992382 0.525149 0.724821 0.000000
C826  C     C_R   0.999640 0.526104 0.741914 0.000000
C827  C     C_R   0.952905 0.511078 0.753325 0.000000
C828  C     C_R   0.898881 0.492143 0.747425 0.000000
N276  N     N_R   0.848581 0.481569 0.756324 0.000000
H911  H     H_    0.756779 0.662932 0.748653 0.000000
H912  H     H_    0.691977 0.624437 0.736901 0.000000
H913  H     H_    0.694813 0.577948 0.756675 0.000000
H914  H     H_    0.780766 0.592673 0.729946 0.000000
H915  H     H_    0.779496 0.560587 0.759775 0.000000
H916  H     H_    0.731723 0.460622 0.753678 0.000000
H917  H     H_    0.934235 0.518188 0.705829 0.000000
H918  H     H_    0.029193 0.536865 0.716010 0.000000
H919  H     H_    0.042373 0.541131 0.746367 0.000000
H920  H     H_    0.960625 0.524896 0.766176 0.000000
C829  C     C_3   0.896978 0.311456 0.731619 0.000000
N277  N     N_3   0.853512 0.306550 0.745011 0.000000
C830  C     C_3   0.868107 0.269892 0.759525 0.000000
C831  C     C_R   0.821651 0.250995 0.773159 0.000000
N278  N     N_R   0.803675 0.309486 0.781184 0.000000
C832  C     C_R   0.771119 0.266232 0.794278 0.000000
C833  C     C_R   0.747854 0.296443 0.807402 0.000000
C834  C     C_R   0.720598 0.243850 0.820568 0.000000
C835  C     C_R   0.715689 0.162364 0.820169 0.000000
C836  C     C_R   0.740624 0.133309 0.806893 0.000000
C837  C     C_R   0.768418 0.187057 0.794060 0.000000
N279  N     N_R   0.799533 0.173884 0.780777 0.000000
H921  H     H_    0.900173 0.250658 0.729405 0.000000
H922  H     H_    0.885210 0.334205 0.719872 0.000000
H923  H     H_    0.939535 0.353235 0.735134 0.000000
H924  H     H_    0.814719 0.265306 0.741471 0.000000
H925  H     H_    0.872351 0.211506 0.755954 0.000000
H926  H     H_    0.909675 0.310162 0.763941 0.000000
H927  H     H_    0.752334 0.359708 0.807758 0.000000
H928  H     H_    0.704813 0.267601 0.831378 0.000000
H929  H     H_    0.694733 0.122215 0.830732 0.000000
H930  H     H_    0.738821 0.070994 0.806787 0.000000
C838  C     C_3   0.743848 0.453284 0.849908 0.000000
N280  N     N_3   0.798788 0.466624 0.841045 0.000000
C839  C     C_3   0.802897 0.515620 0.826086 0.000000
C840  C     C_R   0.858681 0.526324 0.816979 0.000000
N281  N     N_R   0.908587 0.550869 0.825700 0.000000
C841  C     C_R   0.941573 0.517043 0.816207 0.000000
C842  C     C_R   0.991076 0.503149 0.820050 0.000000
C843  C     C_R   0.017619 0.468463 0.808185 0.000000
C844  C     C_R   0.991041 0.438411 0.793670 0.000000
C845  C     C_R   0.936330 0.437994 0.791601 0.000000
C846  C     C_R   0.914581 0.482204 0.802260 0.000000
N282  N     N_R   0.862661 0.488668 0.801732 0.000000
H931  H     H_    0.747085 0.442714 0.863434 0.000000
H932  H     H_    0.731124 0.507513 0.848496 0.000000
H933  H     H_    0.711838 0.398855 0.844759 0.000000
H934  H     H_    0.798600 0.409590 0.837104 0.000000
H935  H     H_    0.766570 0.482604 0.818560 0.000000
H936  H     H_    0.801747 0.576244 0.829395 0.000000
H937  H     H_    0.009220 0.516510 0.831991 0.000000
H938  H     H_    0.058609 0.462821 0.810434 0.000000
H939  H     H_    0.012443 0.413718 0.784166 0.000000
H940  H     H_    0.912640 0.408952 0.781160 0.000000
C847  C     C_3   0.972987 0.830249 0.563912 0.000000
N283  N     N_3   0.915613 0.794667 0.558247 0.000000
C848  C     C_3   0.875819 0.776194 0.572850 0.000000
C849  C     C_R   0.816365 0.743892 0.567597 0.000000
N284  N     N_R   0.783161 0.793427 0.567184 0.000000
C850  C     C_R   0.729516 0.736471 0.568129 0.000000
C851  C     C_R   0.678523 0.746728 0.572350 0.000000
C852  C     C_R   0.628043 0.681739 0.573412 0.000000
C853  C     C_R   0.631179 0.607093 0.576262 0.000000
C854  C     C_R   0.683242 0.597606 0.574945 0.000000
C855  C     C_R   0.730883 0.660010 0.568670 0.000000
N285  N     N_R   0.785068 0.660528 0.567860 0.000000
H941  H     H_    0.003282 0.820106 0.554698 0.000000
H942  H     H_    0.983897 0.896958 0.565143 0.000000
H943  H     H_    0.976981 0.799523 0.575605 0.000000
H944  H     H_    0.911856 0.740970 0.552090 0.000000
H945  H     H_    0.882953 0.730436 0.581233 0.000000
H946  H     H_    0.880874 0.832941 0.579686 0.000000
H947  H     H_    0.677686 0.800924 0.577517 0.000000
H948  H     H_    0.587309 0.690124 0.575590 0.000000
H949  H     H_    0.594276 0.559157 0.581419 0.000000
H950  H     H_    0.686475 0.545487 0.580913 0.000000
C856  C     C_3   0.662220 0.313988 0.616977 0.000000
N286  N     N_3   0.654443 0.306107 0.599060 0.000000
C857  C     C_3   0.693712 0.379458 0.590669 0.000000
C858  C     C_R   0.674011 0.395253 0.574264 0.000000
N287  N     N_R   0.711879 0.456712 0.564150 0.000000
C859  C     C_R   0.678534 0.463020 0.551769 0.000000
C860  C     C_R   0.691806 0.523034 0.539461 0.000000
C861  C     C_R   0.649890 0.520804 0.528519 0.000000
C862  C     C_R   0.597048 0.458789 0.529686 0.000000
C863  C     C_R   0.582829 0.403675 0.543000 0.000000
C864  C     C_R   0.623689 0.408639 0.554385 0.000000
N288  N     N_R   0.617513 0.365942 0.569029 0.000000
H951  H     H_    0.671036 0.260281 0.621677 0.000000
H952  H     H_    0.698891 0.369094 0.619846 0.000000
H953  H     H_    0.622347 0.316059 0.623520 0.000000
H954  H     H_    0.612616 0.302746 0.597321 0.000000
H955  H     H_    0.698974 0.434499 0.598164 0.000000
H956  H     H_    0.736438 0.373368 0.588434 0.000000
H957  H     H_    0.733530 0.570884 0.538449 0.000000
H958  H     H_    0.657072 0.567914 0.519110 0.000000
H959  H     H_    0.565074 0.457414 0.520907 0.000000
H960  H     H_    0.539874 0.360465 0.544324 0.000000
C865  C     C_3   0.388190 0.730281 0.025921 0.000000
N289  N     N_3   0.326940 0.684371 0.026993 0.000000
C866  C     C_3   0.297516 0.742496 0.027057 0.000000
C867  C     C_R   0.237891 0.702078 0.034083 0.000000
N290  N     N_R   0.192751 0.656460 0.024614 0.000000
C868  C     C_R   0.147564 0.644258 0.035595 0.000000
C869  C     C_R   0.091907 0.597620 0.033287 0.000000
C870  C     C_R   0.049953 0.604229 0.044555 0.000000
C871  C     C_R   0.064941 0.656870 0.057776 0.000000
C872  C     C_R   0.122267 0.699629 0.060557 0.000000
C873  C     C_R   0.163143 0.687047 0.049777 0.000000
N291  N     N_R   0.220797 0.721096 0.049917 0.000000
H961  H     H_    0.400895 0.749381 0.038544 0.000000
H962  H     H_    0.412605 0.691051 0.021551 0.000000
H963  H     H_    0.398284 0.783928 0.017262 0.000000
H964  H     H_    0.316337 0.654918 0.038732 0.000000
H965  H     H_    0.319393 0.792973 0.035294 0.000000
H966  H     H_    0.297559 0.767323 0.014269 0.000000
H967  H     H_    0.081737 0.555848 0.023183 0.000000
H968  H     H_    0.005213 0.569780 0.042893 0.000000
H969  H     H_    0.030862 0.661441 0.066079 0.000000
H970  H     H_    0.134392 0.740523 0.070898 0.000000
C874  C     C_3   0.970609 0.164134 0.561795 0.000000
N292  N     N_3   0.935746 0.088633 0.570488 0.000000
C875  C     C_3   0.915245 0.109348 0.586629 0.000000
C876  C     C_R   0.881297 0.033676 0.596422 0.000000
N293  N     N_R   0.836080 0.969172 0.590290 0.000000
C877  C     C_R   0.817639 0.920791 0.604065 0.000000
C878  C     C_R   0.768184 0.855099 0.606331 0.000000
C879  C     C_R   0.755700 0.816910 0.621922 0.000000
C880  C     C_R   0.796360 0.837045 0.633851 0.000000
C881  C     C_R   0.844818 0.905102 0.631476 0.000000
C882  C     C_R   0.851173 0.950651 0.617098 0.000000
N294  N     N_R   0.890057 0.024798 0.613261 0.000000
H971  H     H_    0.010807 0.192146 0.568244 0.000000
H972  H     H_    0.981314 0.150132 0.548812 0.000000
H973  H     H_    0.946732 0.207194 0.561436 0.000000
H974  H     H_    0.962679 0.055648 0.572575 0.000000
H975  H     H_    0.952134 0.145660 0.593833 0.000000
H976  H     H_    0.888257 0.146972 0.584854 0.000000
H977  H     H_    0.738103 0.838146 0.596803 0.000000
H978  H     H_    0.715115 0.768888 0.624618 0.000000
H979  H     H_    0.789951 0.801037 0.645253 0.000000
H980  H     H_    0.877137 0.918370 0.640335 0.000000
C883  C     C_3   0.253669 0.876777 0.885526 0.000000
N295  N     N_3   0.273581 0.812219 0.879316 0.000000
C884  C     C_3   0.287576 0.762954 0.892029 0.000000
C885  C     C_R   0.235323 0.718513 0.901551 0.000000
N296  N     N_R   0.226031 0.755904 0.916061 0.000000
C886  C     C_R   0.172443 0.756809 0.914048 0.000000
C887  C     C_R   0.148675 0.810565 0.920935 0.000000
C888  C     C_R   0.097217 0.810633 0.915106 0.000000
C889  C     C_R   0.079058 0.776644 0.900085 0.000000
C890  C     C_R   0.110057 0.736384 0.891678 0.000000
C891  C     C_R   0.150674 0.716393 0.899784 0.000000
N297  N     N_R   0.187835 0.685007 0.892242 0.000000
H981  H     H_    0.282203 0.936003 0.879849 0.000000
H982  H     H_    0.209769 0.866115 0.881468 0.000000
H983  H     H_    0.253776 0.881517 0.899152 0.000000
H984  H     H_    0.311371 0.843440 0.872663 0.000000
H985  H     H_    0.304191 0.717953 0.886227 0.000000
H986  H     H_    0.317730 0.802073 0.900484 0.000000
H987  H     H_    0.169279 0.853183 0.930283 0.000000
H988  H     H_    0.071999 0.840628 0.921626 0.000000
H989  H     H_    0.043889 0.787674 0.894354 0.000000
H990  H     H_    0.106907 0.730027 0.878529 0.000000
C892  C     C_3   0.206152 0.968584 0.967249 0.000000
N298  N     N_3   0.256618 0.953606 0.972504 0.000000
C893  C     C_3   0.306181 0.003904 0.962261 0.000000
C894  C     C_R   0.294533 0.001255 0.944152 0.000000
N299  N     N_R   0.301416 0.941540 0.933826 0.000000
C895  C     C_R   0.317705 0.982793 0.919142 0.000000
C896  C     C_R   0.356838 0.971888 0.907932 0.000000
C897  C     C_R   0.387922 0.036419 0.897389 0.000000
C898  C     C_R   0.369250 0.100376 0.894992 0.000000
C899  C     C_R   0.331355 0.112866 0.906910 0.000000
C900  C     C_R   0.312275 0.056752 0.919867 0.000000
N300  N     N_R   0.298164 0.071745 0.935529 0.000000
H991  H     H_    0.188252 0.931376 0.956337 0.000000
H992  H     H_    0.173254 0.952060 0.977710 0.000000
H993  H     H_    0.216669 0.034106 0.964298 0.000000
H994  H     H_    0.252097 0.893239 0.970451 0.000000
H995  H     H_    0.318875 0.067968 0.966299 0.000000
H996  H     H_    0.342494 0.982182 0.964006 0.000000
H997  H     H_    0.368884 0.920218 0.909521 0.000000
H998  H     H_    0.428194 0.038998 0.891323 0.000000
H999  H     H_    0.392461 0.147515 0.885850 0.000000
H1000 H     H_    0.326457 0.171320 0.907462 0.000000
C901  C     C_3   0.077262 0.729655 0.953127 0.000000
N301  N     N_3   0.118262 0.691959 0.957917 0.000000
C902  C     C_3   0.168512 0.757499 0.962713 0.000000
C903  C     C_R   0.216401 0.730037 0.966362 0.000000
N302  N     N_R   0.220070 0.687231 0.980667 0.000000
C904  C     C_R   0.275704 0.694569 0.979584 0.000000
C905  C     C_R   0.303304 0.662619 0.990266 0.000000
C906  C     C_R   0.361840 0.679464 0.987176 0.000000
C907  C     C_R   0.391607 0.732225 0.974313 0.000000
C908  C     C_R   0.362429 0.764587 0.963939 0.000000
C909  C     C_R   0.303917 0.740710 0.966071 0.000000
N303  N     N_R   0.267436 0.762364 0.956914 0.000000
H1001 H     H_    0.039752 0.711869 0.962036 0.000000
H1002 H     H_    0.096102 0.797207 0.953016 0.000000
H1003 H     H_    0.061560 0.707869 0.940745 0.000000
H1004 H     H_    0.131324 0.667884 0.947141 0.000000
H1005 H     H_    0.186017 0.800136 0.952073 0.000000
H1006 H     H_    0.157984 0.791222 0.973167 0.000000
H1007 H     H_    0.279285 0.627615 0.000926 0.000000
H1008 H     H_    0.385998 0.655668 0.995109 0.000000
H1009 H     H_    0.437858 0.749492 0.972623 0.000000
H1010 H     H_    0.385990 0.810479 0.955181 0.000000
C910  C     C_3   0.466116 0.965142 0.956058 0.000000
N304  N     N_3   0.429248 0.945924 0.941962 0.000000
C911  C     C_3   0.457766 0.922591 0.927400 0.000000
C912  C     C_R   0.426803 0.833901 0.924211 0.000000
N305  N     N_R   0.453961 0.777788 0.920387 0.000000
C913  C     C_R   0.408836 0.706177 0.921871 0.000000
C914  C     C_R   0.407340 0.629092 0.918086 0.000000
C915  C     C_R   0.354619 0.567809 0.917048 0.000000
C916  C     C_R   0.304361 0.583461 0.920353 0.000000
C917  C     C_R   0.306458 0.657814 0.926154 0.000000
C918  C     C_R   0.358737 0.719272 0.925452 0.000000
N306  N     N_R   0.367315 0.798673 0.926836 0.000000
H1011 H     H_    0.467201 0.908346 0.961902 0.000000
H1012 H     H_    0.510356 0.004806 0.951983 0.000000
H1013 H     H_    0.448320 0.997187 0.965641 0.000000
H1014 H     H_    0.419421 0.997194 0.938800 0.000000
H1015 H     H_    0.457397 0.961875 0.916647 0.000000
H1016 H     H_    0.503609 0.935761 0.928859 0.000000
H1017 H     H_    0.444994 0.615244 0.915745 0.000000
H1018 H     H_    0.352581 0.507072 0.913844 0.000000
H1019 H     H_    0.263172 0.538395 0.918305 0.000000
H1020 H     H_    0.267331 0.667380 0.930099 0.000000
C919  C     C_3   0.356237 0.915975 0.576973 0.000000
N307  N     N_3   0.302008 0.854797 0.573128 0.000000
C920  C     C_3   0.292096 0.789342 0.585257 0.000000
C921  C     C_R   0.244500 0.717491 0.580846 0.000000
N308  N     N_R   0.199743 0.680875 0.592384 0.000000
C922  C     C_R   0.170096 0.611761 0.584494 0.000000
C923  C     C_R   0.122713 0.546958 0.590217 0.000000
C924  C     C_R   0.097111 0.487203 0.579042 0.000000
C925  C     C_R   0.121829 0.489327 0.563033 0.000000
C926  C     C_R   0.175412 0.545055 0.558757 0.000000
C927  C     C_R   0.196512 0.608552 0.569243 0.000000
N309  N     N_R   0.244767 0.673251 0.566594 0.000000
H1021 H     H_    0.372387 0.961051 0.566644 0.000000
H1022 H     H_    0.349090 0.945146 0.588631 0.000000
H1023 H     H_    0.389507 0.888968 0.578826 0.000000
H1024 H     H_    0.305648 0.832843 0.561205 0.000000
H1025 H     H_    0.330345 0.771032 0.585884 0.000000
H1026 H     H_    0.279256 0.808773 0.597556 0.000000
H1027 H     H_    0.105792 0.540180 0.602907 0.000000
H1028 H     H_    0.058230 0.437814 0.582894 0.000000
H1029 H     H_    0.100106 0.445681 0.554035 0.000000
H1030 H     H_    0.197525 0.542329 0.546915 0.000000
C928  C     C_3   0.116281 0.496905 0.514588 0.000000
N310  N     N_3   0.172891 0.556917 0.516247 0.000000
C929  C     C_3   0.168223 0.633145 0.522200 0.000000
C930  C     C_R   0.224269 0.696218 0.518080 0.000000
N311  N     N_R   0.274519 0.692961 0.524327 0.000000
C931  C     C_R   0.313231 0.726315 0.511474 0.000000
C932  C     C_R   0.369193 0.728778 0.509580 0.000000
C933  C     C_R   0.402900 0.773189 0.495989 0.000000
C934  C     C_R   0.380709 0.815641 0.485110 0.000000
C935  C     C_R   0.323351 0.809167 0.486922 0.000000
C936  C     C_R   0.289762 0.759855 0.499748 0.000000
N312  N     N_R   0.232387 0.737394 0.502909 0.000000
H1031 H     H_    0.103976 0.458660 0.526082 0.000000
H1032 H     H_    0.083929 0.525556 0.512595 0.000000
H1033 H     H_    0.117844 0.458232 0.503755 0.000000
H1034 H     H_    0.193280 0.568405 0.504228 0.000000
H1035 H     H_    0.136336 0.649249 0.515299 0.000000
H1036 H     H_    0.156346 0.630877 0.535717 0.000000
H1037 H     H_    0.386607 0.698622 0.518560 0.000000
H1038 H     H_    0.447391 0.777593 0.494225 0.000000
H1039 H     H_    0.408017 0.852324 0.474881 0.000000
H1040 H     H_    0.305323 0.839070 0.478088 0.000000
C937  C     C_3   0.468627 0.659496 0.546421 0.000000
N313  N     N_3   0.425944 0.641741 0.560496 0.000000
C938  C     C_3   0.438979 0.710533 0.571680 0.000000
C939  C     C_R   0.427480 0.777645 0.563267 0.000000
N314  N     N_R   0.471322 0.852187 0.561072 0.000000
C940  C     C_R   0.455726 0.882987 0.547419 0.000000
C941  C     C_R   0.490987 0.936036 0.535387 0.000000
C942  C     C_R   0.467063 0.952431 0.521161 0.000000
C943  C     C_R   0.407920 0.921095 0.520043 0.000000
C944  C     C_R   0.374125 0.864373 0.531911 0.000000
C945  C     C_R   0.401642 0.836284 0.543595 0.000000
N315  N     N_R   0.382422 0.765453 0.552721 0.000000
H1041 H     H_    0.464644 0.707263 0.537928 0.000000
H1042 H     H_    0.512367 0.677607 0.551055 0.000000
H1043 H     H_    0.461434 0.603839 0.539043 0.000000
H1044 H     H_    0.428188 0.592142 0.567292 0.000000
H1045 H     H_    0.413086 0.693777 0.583724 0.000000
H1046 H     H_    0.485044 0.731700 0.574409 0.000000
H1047 H     H_    0.536421 0.954156 0.535591 0.000000
H1048 H     H_    0.494121 0.992720 0.511341 0.000000
H1049 H     H_    0.388327 0.939842 0.509838 0.000000
H1050 H     H_    0.327999 0.841739 0.531588 0.000000
C946  C     C_3   0.376670 0.512493 0.497248 0.000000
N316  N     N_3   0.365368 0.487144 0.514774 0.000000
C947  C     C_3   0.308655 0.487238 0.520253 0.000000
C948  C     C_R   0.304281 0.484533 0.538844 0.000000
N317  N     N_R   0.304936 0.417690 0.548265 0.000000
C949  C     C_R   0.306346 0.445665 0.563781 0.000000
C950  C     C_R   0.318605 0.410275 0.577557 0.000000
C951  C     C_R   0.335464 0.458631 0.591115 0.000000
C952  C     C_R   0.332410 0.535316 0.591166 0.000000
C953  C     C_R   0.314249 0.567040 0.577907 0.000000
C954  C     C_R   0.305187 0.522669 0.563849 0.000000
N318  N     N_R   0.304836 0.551378 0.548325 0.000000
H1051 H     H_    0.417574 0.505477 0.492577 0.000000
H1052 H     H_    0.340880 0.473707 0.489975 0.000000
H1053 H     H_    0.381271 0.577643 0.495880 0.000000
H1054 H     H_    0.395199 0.531516 0.521488 0.000000
H1055 H     H_    0.303013 0.543853 0.515720 0.000000
H1056 H     H_    0.274918 0.433139 0.515424 0.000000
H1057 H     H_    0.323852 0.351742 0.577061 0.000000
H1058 H     H_    0.354838 0.439542 0.601256 0.000000
H1059 H     H_    0.350015 0.574223 0.600890 0.000000
H1060 H     H_    0.318588 0.630134 0.577767 0.000000
C955  C     C_3   0.502587 0.151605 0.938662 0.000000
N319  N     N_3   0.454526 0.180991 0.940109 0.000000
C956  C     C_3   0.455082 0.226396 0.924805 0.000000
C957  C     C_R   0.428144 0.288797 0.928266 0.000000
N320  N     N_R   0.371396 0.274872 0.933964 0.000000
C958  C     C_R   0.374647 0.349973 0.938982 0.000000
C959  C     C_R   0.331996 0.371877 0.946954 0.000000
C960  C     C_R   0.345551 0.448870 0.953446 0.000000
C961  C     C_R   0.400537 0.504259 0.950908 0.000000
C962  C     C_R   0.441679 0.483282 0.941663 0.000000
C963  C     C_R   0.428489 0.405206 0.935840 0.000000
N321  N     N_R   0.462847 0.369428 0.927856 0.000000
H1061 H     H_    0.509164 0.130882 0.951232 0.000000
H1062 H     H_    0.494416 0.102926 0.929320 0.000000
H1063 H     H_    0.542986 0.199776 0.934367 0.000000
H1064 H     H_    0.461378 0.221106 0.950070 0.000000
H1065 H     H_    0.499784 0.260201 0.919978 0.000000
H1066 H     H_    0.435101 0.184664 0.915127 0.000000
H1067 H     H_    0.288807 0.330146 0.948462 0.000000
H1068 H     H_    0.312942 0.466223 0.960296 0.000000
H1069 H     H_    0.411295 0.564754 0.955969 0.000000
H1070 H     H_    0.483033 0.527095 0.940435 0.000000
C964  C     C_3   0.215177 0.394103 0.934636 0.000000
N322  N     N_3   0.210887 0.315271 0.928047 0.000000
C965  C     C_3   0.244797 0.324789 0.912142 0.000000
C966  C     C_R   0.233832 0.241075 0.906246 0.000000
N323  N     N_R   0.237795 0.185685 0.918084 0.000000
C967  C     C_R   0.193962 0.118116 0.914688 0.000000
C968  C     C_R   0.172612 0.048761 0.924431 0.000000
C969  C     C_R   0.117082 0.999364 0.922418 0.000000
C970  C     C_R   0.087658 0.011716 0.909097 0.000000
C971  C     C_R   0.112719 0.077275 0.898223 0.000000
C972  C     C_R   0.165752 0.131260 0.901478 0.000000
N324  N     N_R   0.192001 0.206970 0.894826 0.000000
H1071 H     H_    0.200001 0.386828 0.948032 0.000000
H1072 H     H_    0.260313 0.434162 0.933776 0.000000
H1073 H     H_    0.189674 0.421838 0.927527 0.000000
H1074 H     H_    0.167832 0.282071 0.926263 0.000000
H1075 H     H_    0.232468 0.362144 0.902963 0.000000
H1076 H     H_    0.290718 0.353919 0.914370 0.000000
H1077 H     H_    0.193805 0.039335 0.935171 0.000000
H1078 H     H_    0.095748 0.954331 0.932040 0.000000
H1079 H     H_    0.044108 0.972292 0.907646 0.000000
H1080 H     H_    0.088956 0.088712 0.888518 0.000000
C973  C     C_3   0.785759 0.185024 0.407720 0.000000
N325  N     N_3   0.782648 0.137144 0.392790 0.000000
C974  C     C_3   0.774372 0.053991 0.397603 0.000000
C975  C     C_R   0.828137 0.047680 0.403250 0.000000
N326  N     N_R   0.878484 0.071435 0.393341 0.000000
C976  C     C_R   0.912566 0.045209 0.402723 0.000000
C977  C     C_R   0.966166 0.044166 0.398947 0.000000
C978  C     C_R   0.998228 0.035724 0.411954 0.000000
C979  C     C_R   0.971280 0.007544 0.427440 0.000000
C980  C     C_R   0.912904 0.990137 0.429865 0.000000
C981  C     C_R   0.885385 0.013146 0.417563 0.000000
N327  N     N_R   0.831086 0.010898 0.418260 0.000000
H1081 H     H_    0.804721 0.250384 0.404081 0.000000
H1082 H     H_    0.741889 0.172678 0.413386 0.000000
H1083 H     H_    0.812770 0.171248 0.417003 0.000000
H1084 H     H_    0.821011 0.160404 0.385716 0.000000
H1085 H     H_    0.739937 0.033179 0.407488 0.000000
H1086 H     H_    0.761925 0.014191 0.386772 0.000000
H1087 H     H_    0.981398 0.045450 0.386269 0.000000
H1088 H     H_    0.043365 0.044690 0.409772 0.000000
H1089 H     H_    0.995609 0.997042 0.437352 0.000000
H1090 H     H_    0.891318 0.968641 0.441744 0.000000
C982  C     C_3   0.874257 0.229566 0.450159 0.000000
N328  N     N_3   0.879337 0.153046 0.444644 0.000000
C983  C     C_3   0.902523 0.119472 0.457946 0.000000
C984  C     C_R   0.855741 0.052572 0.467144 0.000000
N329  N     N_R   0.849845 0.053944 0.484345 0.000000
C985  C     C_R   0.797001 0.996029 0.487714 0.000000
C986  C     C_R   0.762609 0.981214 0.502395 0.000000
C987  C     C_R   0.704897 0.935299 0.501635 0.000000
C988  C     C_R   0.683497 0.895291 0.487177 0.000000
C989  C     C_R   0.718907 0.906897 0.472772 0.000000
C990  C     C_R   0.774379 0.960568 0.473278 0.000000
N330  N     N_R   0.810179 0.993412 0.459912 0.000000
H1091 H     H_    0.861541 0.258954 0.439594 0.000000
H1092 H     H_    0.840380 0.217166 0.460380 0.000000
H1093 H     H_    0.915940 0.272333 0.454168 0.000000
H1094 H     H_    0.909419 0.165972 0.434455 0.000000
H1095 H     H_    0.936709 0.098537 0.452668 0.000000
H1096 H     H_    0.922808 0.166852 0.467100 0.000000
H1097 H     H_    0.777106 0.011616 0.513828 0.000000
H1098 H     H_    0.675854 0.932390 0.512372 0.000000
H1099 H     H_    0.638500 0.857914 0.486983 0.000000
H1100 H     H_    0.702110 0.878609 0.461265 0.000000
C991  C     C_3   0.871612 0.861781 0.475787 0.000000
N331  N     N_3   0.848979 0.849197 0.459318 0.000000
C992  C     C_3   0.800870 0.773321 0.459608 0.000000
C993  C     C_R   0.776601 0.763454 0.442949 0.000000
N332  N     N_R   0.771066 0.829023 0.434450 0.000000
C994  C     C_R   0.759529 0.799999 0.419092 0.000000
C995  C     C_R   0.746630 0.839580 0.405918 0.000000
C996  C     C_R   0.726686 0.795850 0.391943 0.000000
C997  C     C_R   0.722106 0.715015 0.391367 0.000000
C998  C     C_R   0.742322 0.678821 0.403985 0.000000
C999  C     C_R   0.757080 0.721372 0.418364 0.000000
N333  N     N_R   0.766522 0.693943 0.433434 0.000000
H1101 H     H_    0.883097 0.926378 0.479087 0.000000
H1102 H     H_    0.839533 0.823628 0.485335 0.000000
H1103 H     H_    0.911407 0.847442 0.475313 0.000000
H1104 H     H_    0.881029 0.840921 0.451262 0.000000
H1105 H     H_    0.817711 0.724121 0.461974 0.000000
H1106 H     H_    0.767015 0.774632 0.469149 0.000000
H1107 H     H_    0.744490 0.899168 0.407226 0.000000
H1108 H     H_    0.710424 0.822634 0.382049 0.000000
H1109 H     H_    0.698247 0.679493 0.381495 0.000000
H1110 H     H_    0.741218 0.616695 0.403287 0.000000
C1000 C     C_3   0.586880 0.710744 0.411095 0.000000
N334  N     N_3   0.595930 0.796916 0.411628 0.000000
C1001 C     C_3   0.624877 0.826810 0.426656 0.000000
C1002 C     C_R   0.647540 0.917090 0.426183 0.000000
N335  N     N_R   0.697227 0.958100 0.434141 0.000000
C1003 C     C_R   0.690166 0.028246 0.437961 0.000000
C1004 C     C_R   0.725609 0.089775 0.446989 0.000000
C1005 C     C_R   0.710584 0.157144 0.449754 0.000000
C1006 C     C_R   0.664328 0.164817 0.442084 0.000000
C1007 C     C_R   0.631587 0.103799 0.432194 0.000000
C1008 C     C_R   0.642342 0.033058 0.431222 0.000000
N336  N     N_R   0.613358 0.963865 0.423244 0.000000
H1111 H     H_    0.628128 0.702150 0.408606 0.000000
H1112 H     H_    0.567421 0.682221 0.423348 0.000000
H1113 H     H_    0.558863 0.681965 0.400900 0.000000
H1114 H     H_    0.555561 0.801422 0.413873 0.000000
H1115 H     H_    0.594527 0.805279 0.437736 0.000000
H1116 H     H_    0.659261 0.802268 0.428426 0.000000
H1117 H     H_    0.763597 0.086480 0.452037 0.000000
H1118 H     H_    0.737293 0.206164 0.456951 0.000000
H1119 H     H_    0.655642 0.220495 0.443223 0.000000
H1120 H     H_    0.600260 0.112865 0.425096 0.000000
C1009 C     C_3   0.748349 0.652940 0.006482 0.000000
N337  N     N_3   0.779254 0.596192 0.004127 0.000000
C1010 C     C_3   0.802076 0.581966 0.019882 0.000000
C1011 C     C_R   0.832196 0.523650 0.017646 0.000000
N338  N     N_R   0.804241 0.447989 0.025106 0.000000
C1012 C     C_R   0.802578 0.398259 0.012318 0.000000
C1013 C     C_R   0.761280 0.323157 0.010424 0.000000
C1014 C     C_R   0.760565 0.286952 0.995069 0.000000
C1015 C     C_R   0.803621 0.322392 0.982695 0.000000
C1016 C     C_R   0.843883 0.399032 0.984841 0.000000
C1017 C     C_R   0.837930 0.439568 0.999159 0.000000
N339  N     N_R   0.858729 0.520707 0.002119 0.000000
H1121 H     H_    0.772973 0.712117 0.000112 0.000000
H1122 H     H_    0.706653 0.629672 0.000643 0.000000
H1123 H     H_    0.740298 0.661777 0.019933 0.000000
H1124 H     H_    0.812645 0.622075 0.995184 0.000000
H1125 H     H_    0.827940 0.636128 0.026026 0.000000
H1126 H     H_    0.765883 0.550808 0.028458 0.000000
H1127 H     H_    0.728232 0.295614 0.020205 0.000000
H1128 H     H_    0.726358 0.230889 0.992727 0.000000
H1129 H     H_    0.804447 0.291210 0.971054 0.000000
H1130 H     H_    0.877776 0.424651 0.975406 0.000000
C1018 C     C_3   0.754283 0.615494 0.057111 0.000000
N340  N     N_3   0.806397 0.631188 0.065670 0.000000
C1019 C     C_3   0.789715 0.582144 0.080964 0.000000
C1020 C     C_R   0.822206 0.526666 0.080842 0.000000
N341  N     N_R   0.820241 0.472541 0.067868 0.000000
C1021 C     C_R   0.870357 0.460374 0.069553 0.000000
C1022 C     C_R   0.895047 0.419689 0.058817 0.000000
C1023 C     C_R   0.949354 0.420136 0.061968 0.000000
C1024 C     C_R   0.977543 0.461250 0.075532 0.000000
C1025 C     C_R   0.951806 0.501655 0.086334 0.000000
C1026 C     C_R   0.898158 0.500377 0.083064 0.000000
N342  N     N_R   0.867894 0.541150 0.091053 0.000000
H1131 H     H_    0.763250 0.655655 0.045903 0.000000
H1132 H     H_    0.740236 0.551552 0.053947 0.000000
H1133 H     H_    0.719619 0.625316 0.065078 0.000000
H1134 H     H_    0.823138 0.692764 0.068325 0.000000
H1135 H     H_    0.799813 0.621440 0.092057 0.000000
H1136 H     H_    0.743734 0.546273 0.081228 0.000000
H1137 H     H_    0.873851 0.391904 0.047870 0.000000
H1138 H     H_    0.971041 0.390369 0.053615 0.000000
H1139 H     H_    0.020104 0.461952 0.077646 0.000000
H1140 H     H_    0.974067 0.534659 0.096666 0.000000
C1027 C     C_3   0.992953 0.599010 0.443214 0.000000
N343  N     N_3   0.947964 0.602574 0.455191 0.000000
C1028 C     C_3   0.896057 0.534176 0.452484 0.000000
C1029 C     C_R   0.849219 0.541604 0.463901 0.000000
N344  N     N_R   0.853354 0.544732 0.481122 0.000000
C1030 C     C_R   0.809052 0.569799 0.486022 0.000000
C1031 C     C_R   0.798561 0.601062 0.501103 0.000000
C1032 C     C_R   0.755591 0.634511 0.502368 0.000000
C1033 C     C_R   0.719958 0.629518 0.489323 0.000000
C1034 C     C_R   0.731121 0.598755 0.474167 0.000000
C1035 C     C_R   0.778429 0.575093 0.472671 0.000000
N345  N     N_R   0.802794 0.559088 0.458335 0.000000
H1141 H     H_    0.035090 0.634934 0.447914 0.000000
H1142 H     H_    0.991740 0.535748 0.442140 0.000000
H1143 H     H_    0.987582 0.623463 0.430807 0.000000
H1144 H     H_    0.939513 0.655345 0.452175 0.000000
H1145 H     H_    0.885622 0.537439 0.439374 0.000000
H1146 H     H_    0.901919 0.475401 0.455133 0.000000
H1147 H     H_    0.826246 0.608263 0.511192 0.000000
H1148 H     H_    0.749517 0.664631 0.513753 0.000000
H1149 H     H_    0.685497 0.653938 0.490715 0.000000
H1150 H     H_    0.706355 0.599624 0.463488 0.000000
C1036 C     C_3   0.590945 0.560294 0.439973 0.000000
N346  N     N_3   0.634069 0.586959 0.426129 0.000000
C1037 C     C_3   0.627445 0.523293 0.413718 0.000000
C1038 C     C_R   0.648014 0.458732 0.419965 0.000000
N347  N     N_R   0.688415 0.474402 0.432183 0.000000
C1039 C     C_R   0.664586 0.407167 0.442389 0.000000
C1040 C     C_R   0.674392 0.398217 0.458957 0.000000
C1041 C     C_R   0.633449 0.337800 0.468749 0.000000
C1042 C     C_R   0.585143 0.284269 0.461839 0.000000
C1043 C     C_R   0.577356 0.291029 0.444988 0.000000
C1044 C     C_R   0.617353 0.352450 0.435609 0.000000
N348  N     N_R   0.607614 0.380909 0.420936 0.000000
H1151 H     H_    0.593576 0.613329 0.447921 0.000000
H1152 H     H_    0.547973 0.536831 0.435079 0.000000
H1153 H     H_    0.599044 0.513825 0.447915 0.000000
H1154 H     H_    0.672543 0.599301 0.431658 0.000000
H1155 H     H_    0.581222 0.494387 0.411415 0.000000
H1156 H     H_    0.649174 0.548524 0.401455 0.000000
H1157 H     H_    0.710566 0.438953 0.464710 0.000000
H1158 H     H_    0.637720 0.334732 0.482106 0.000000
H1159 H     H_    0.552538 0.239296 0.469758 0.000000
H1160 H     H_    0.537225 0.257016 0.439766 0.000000
C1045 C     C_3   0.767082 0.336099 0.432639 0.000000
N349  N     N_3   0.807481 0.414800 0.427128 0.000000
C1046 C     C_3   0.800009 0.430428 0.409705 0.000000
C1047 C     C_R   0.831827 0.517182 0.406209 0.000000
N350  N     N_R   0.827064 0.572147 0.417731 0.000000
C1048 C     C_R   0.867585 0.641358 0.412257 0.000000
C1049 C     C_R   0.882510 0.714940 0.419956 0.000000
C1050 C     C_R   0.909638 0.783072 0.410061 0.000000
C1051 C     C_R   0.924557 0.773518 0.393497 0.000000
C1052 C     C_R   0.922306 0.698570 0.387547 0.000000
C1053 C     C_R   0.891216 0.630928 0.397086 0.000000
N351  N     N_R   0.870413 0.551455 0.392668 0.000000
H1161 H     H_    0.728524 0.317425 0.425174 0.000000
H1162 H     H_    0.788515 0.290961 0.431400 0.000000
H1163 H     H_    0.754908 0.338982 0.446104 0.000000
H1164 H     H_    0.848230 0.411097 0.427823 0.000000
H1165 H     H_    0.816734 0.392513 0.401448 0.000000
H1166 H     H_    0.754415 0.420936 0.408093 0.000000
H1167 H     H_    0.870560 0.719735 0.432976 0.000000
H1168 H     H_    0.916912 0.843069 0.414957 0.000000
H1169 H     H_    0.940722 0.825708 0.385187 0.000000
H1170 H     H_    0.937298 0.695602 0.374934 0.000000
C1054 C     C_3   0.215034 0.541184 0.618299 0.000000
N352  N     N_3   0.269534 0.576367 0.625935 0.000000
C1055 C     C_3   0.301323 0.656187 0.618388 0.000000
C1056 C     C_R   0.295982 0.717246 0.630010 0.000000
N353  N     N_R   0.330969 0.737079 0.643247 0.000000
C1057 C     C_R   0.300245 0.765311 0.654448 0.000000
C1058 C     C_R   0.309957 0.780368 0.671095 0.000000
C1059 C     C_R   0.266037 0.786310 0.681707 0.000000
C1060 C     C_R   0.213041 0.775298 0.675590 0.000000
C1061 C     C_R   0.204996 0.765407 0.658558 0.000000
C1062 C     C_R   0.249996 0.763033 0.647984 0.000000
N354  N     N_R   0.247221 0.737327 0.631907 0.000000
H1171 H     H_    0.186845 0.488300 0.626100 0.000000
H1172 H     H_    0.193723 0.586666 0.617911 0.000000
H1173 H     H_    0.221913 0.520874 0.605477 0.000000
H1174 H     H_    0.293163 0.538745 0.623463 0.000000
H1175 H     H_    0.347834 0.666027 0.617380 0.000000
H1176 H     H_    0.285897 0.662592 0.606078 0.000000
H1177 H     H_    0.349251 0.783423 0.676164 0.000000
H1178 H     H_    0.272102 0.794982 0.694980 0.000000
H1179 H     H_    0.177736 0.773507 0.684312 0.000000
H1180 H     H_    0.163077 0.753690 0.653841 0.000000
C1063 C     C_3   0.435278 0.930596 0.659107 0.000000
N355  N     N_3   0.497786 0.965687 0.658847 0.000000
C1064 C     C_3   0.520352 0.899690 0.659007 0.000000
C1065 C     C_R   0.487118 0.837082 0.671809 0.000000
N356  N     N_R   0.491975 0.848687 0.688924 0.000000
C1066 C     C_R   0.449843 0.781183 0.695394 0.000000
C1067 C     C_R   0.426706 0.763957 0.711630 0.000000
C1068 C     C_R   0.378381 0.695511 0.714935 0.000000
C1069 C     C_R   0.360281 0.637842 0.702754 0.000000
C1070 C     C_R   0.386463 0.653898 0.686832 0.000000
C1071 C     C_R   0.426098 0.729446 0.683011 0.000000
N357  N     N_R   0.446000 0.764052 0.667705 0.000000
H1181 H     H_    0.416640 0.912508 0.672023 0.000000
H1182 H     H_    0.417761 0.976286 0.654725 0.000000
H1183 H     H_    0.421640 0.878067 0.650697 0.000000
H1184 H     H_    0.509230 0.997744 0.669817 0.000000
H1185 H     H_    0.517115 0.873234 0.646555 0.000000
H1186 H     H_    0.566245 0.922989 0.661629 0.000000
H1187 H     H_    0.443417 0.801804 0.721721 0.000000
H1188 H     H_    0.358739 0.682782 0.727558 0.000000
H1189 H     H_    0.327234 0.579415 0.705848 0.000000
H1190 H     H_    0.379043 0.606598 0.678147 0.000000
C1072 C     C_3   0.355884 0.933834 0.623827 0.000000
N358  N     N_3   0.378377 0.868557 0.620253 0.000000
C1073 C     C_3   0.437901 0.902656 0.614478 0.000000
C1074 C     C_R   0.463759 0.837959 0.612272 0.000000
N359  N     N_R   0.460917 0.782265 0.625136 0.000000
C1075 C     C_R   0.510636 0.769812 0.622342 0.000000
C1076 C     C_R   0.535960 0.733434 0.633127 0.000000
C1077 C     C_R   0.585663 0.721160 0.627241 0.000000
C1078 C     C_R   0.608200 0.746313 0.611163 0.000000
C1079 C     C_R   0.584277 0.789696 0.601354 0.000000
C1080 C     C_R   0.537009 0.804347 0.607526 0.000000
N360  N     N_R   0.509673 0.850042 0.600606 0.000000
H1191 H     H_    0.317382 0.924951 0.616625 0.000000
H1192 H     H_    0.342279 0.931595 0.637326 0.000000
H1193 H     H_    0.388712 0.994164 0.620542 0.000000
H1194 H     H_    0.358124 0.837653 0.610083 0.000000
H1195 H     H_    0.441697 0.934963 0.602292 0.000000
H1196 H     H_    0.461663 0.944640 0.624045 0.000000
H1197 H     H_    0.515679 0.710674 0.645350 0.000000
H1198 H     H_    0.605301 0.687511 0.634638 0.000000
H1199 H     H_    0.644620 0.731542 0.606325 0.000000
H1200 H     H_    0.600437 0.808558 0.589016 0.000000
C1081 C     C_3   0.488513 0.579883 0.600736 0.000000
N361  N     N_3   0.463120 0.601660 0.615904 0.000000
C1082 C     C_3   0.465796 0.547594 0.629219 0.000000
C1083 C     C_R   0.415641 0.530013 0.641058 0.000000
N362  N     N_R   0.389439 0.586410 0.645658 0.000000
C1084 C     C_R   0.338472 0.535807 0.652701 0.000000
C1085 C     C_R   0.295147 0.556732 0.660714 0.000000
C1086 C     C_R   0.248562 0.495806 0.668225 0.000000
C1087 C     C_R   0.242899 0.415191 0.666489 0.000000
C1088 C     C_R   0.285803 0.394430 0.658175 0.000000
C1089 C     C_R   0.335232 0.456110 0.652420 0.000000
N363  N     N_R   0.384649 0.449687 0.645803 0.000000
H1201 H     H_    0.497470 0.629533 0.591259 0.000000
H1202 H     H_    0.529447 0.571674 0.603451 0.000000
H1203 H     H_    0.458092 0.523264 0.595793 0.000000
H1204 H     H_    0.420203 0.590152 0.614270 0.000000
H1205 H     H_    0.462024 0.488975 0.623551 0.000000
H1206 H     H_    0.505433 0.573714 0.635930 0.000000
H1207 H     H_    0.299262 0.618835 0.662662 0.000000
H1208 H     H_    0.216740 0.510645 0.675828 0.000000
H1209 H     H_    0.205508 0.369048 0.672250 0.000000
H1210 H     H_    0.281211 0.331191 0.657174 0.000000
C1090 C     C_3   0.089148 0.088941 0.544903 0.000000
N364  N     N_3   0.126180 0.146877 0.532484 0.000000
C1091 C     C_3   0.181100 0.134989 0.530833 0.000000
C1092 C     C_R   0.223037 0.196042 0.519077 0.000000
N365  N     N_R   0.225984 0.184056 0.501949 0.000000
C1093 C     C_R   0.281227 0.229140 0.497479 0.000000
C1094 C     C_R   0.312190 0.224122 0.482989 0.000000
C1095 C     C_R   0.371330 0.262057 0.482404 0.000000
C1096 C     C_R   0.398240 0.307686 0.495737 0.000000
C1097 C     C_R   0.366456 0.312361 0.510223 0.000000
C1098 C     C_R   0.308152 0.270851 0.510860 0.000000
N366  N     N_R   0.272455 0.252531 0.524752 0.000000
H1211 H     H_    0.043578 0.077056 0.542368 0.000000
H1212 H     H_    0.097531 0.031601 0.544070 0.000000
H1213 H     H_    0.097637 0.113677 0.557654 0.000000
H1214 H     H_    0.134423 0.203101 0.537983 0.000000
H1215 H     H_    0.199360 0.144115 0.543094 0.000000
H1216 H     H_    0.176209 0.072976 0.526470 0.000000
H1217 H     H_    0.292427 0.186855 0.472806 0.000000
H1218 H     H_    0.396902 0.255037 0.471501 0.000000
H1219 H     H_    0.444509 0.337167 0.495030 0.000000
H1220 H     H_    0.387476 0.343850 0.520986 0.000000
C1099 C     C_3   0.260377 0.995588 0.560905 0.000000
N367  N     N_3   0.249993 0.072143 0.561010 0.000000
C1100 C     C_3   0.272110 0.117287 0.575914 0.000000
C1101 C     C_R   0.242438 0.175744 0.579006 0.000000
N368  N     N_R   0.243757 0.232733 0.566854 0.000000
C1102 C     C_R   0.197701 0.252153 0.571568 0.000000
C1103 C     C_R   0.174849 0.299520 0.562799 0.000000
C1104 C     C_R   0.124430 0.306227 0.569486 0.000000
C1105 C     C_R   0.105329 0.281497 0.585863 0.000000
C1106 C     C_R   0.131415 0.238064 0.594771 0.000000
C1107 C     C_R   0.173172 0.214928 0.586536 0.000000
N369  N     N_R   0.201268 0.166208 0.592010 0.000000
H1221 H     H_    0.240008 0.959510 0.550067 0.000000
H1222 H     H_    0.306792 0.008705 0.559605 0.000000
H1223 H     H_    0.242693 0.959937 0.572645 0.000000
H1224 H     H_    0.205812 0.058176 0.561527 0.000000
H1225 H     H_    0.264952 0.076001 0.587020 0.000000
H1226 H     H_    0.317479 0.153502 0.573191 0.000000
H1227 H     H_    0.192281 0.323791 0.550417 0.000000
H1228 H     H_    0.099723 0.330782 0.562033 0.000000
H1229 H     H_    0.069281 0.295009 0.591609 0.000000
H1230 H     H_    0.120684 0.228331 0.607841 0.000000
C1108 C     C_3   0.512619 0.508318 0.558088 0.000000
N370  N     N_3   0.502171 0.437621 0.569072 0.000000
C1109 C     C_3   0.440807 0.395964 0.571054 0.000000
C1110 C     C_R   0.427689 0.317864 0.562586 0.000000
N371  N     N_R   0.463192 0.272237 0.563795 0.000000
C1111 C     C_R   0.437852 0.210013 0.553588 0.000000
C1112 C     C_R   0.445808 0.136968 0.552496 0.000000
C1113 C     C_R   0.413648 0.079720 0.542076 0.000000
C1114 C     C_R   0.370754 0.091800 0.533493 0.000000
C1115 C     C_R   0.356742 0.159738 0.536737 0.000000
C1116 C     C_R   0.391372 0.218995 0.546594 0.000000
N372  N     N_R   0.381485 0.285110 0.552490 0.000000
H1231 H     H_    0.488117 0.491210 0.546624 0.000000
H1232 H     H_    0.502489 0.555509 0.565266 0.000000
H1233 H     H_    0.558497 0.534460 0.553942 0.000000
H1234 H     H_    0.515297 0.457480 0.580925 0.000000
H1235 H     H_    0.427779 0.384340 0.584607 0.000000
H1236 H     H_    0.418807 0.433181 0.565200 0.000000
H1237 H     H_    0.468807 0.117136 0.561201 0.000000
H1238 H     H_    0.417705 0.021487 0.542632 0.000000
H1239 H     H_    0.342976 0.042996 0.526331 0.000000
H1240 H     H_    0.317108 0.160829 0.532600 0.000000
C1117 C     C_3   0.060389 0.327840 0.377264 0.000000
N373  N     N_3   0.092930 0.272994 0.376208 0.000000
C1118 C     C_3   0.053547 0.191193 0.380667 0.000000
C1119 C     C_R   0.030799 0.147502 0.365090 0.000000
N374  N     N_R   0.069154 0.145033 0.352248 0.000000
C1120 C     C_R   0.041726 0.156445 0.338829 0.000000
C1121 C     C_R   0.066463 0.205313 0.324879 0.000000
C1122 C     C_R   0.030814 0.214856 0.312950 0.000000
C1123 C     C_R   0.971727 0.179468 0.315635 0.000000
C1124 C     C_R   0.948464 0.147604 0.331362 0.000000
C1125 C     C_R   0.985482 0.143088 0.343152 0.000000
N375  N     N_R   0.976211 0.138021 0.359950 0.000000
H1241 H     H_    0.087044 0.388540 0.372140 0.000000
H1242 H     H_    0.022089 0.304517 0.369768 0.000000
H1243 H     H_    0.048273 0.335152 0.390572 0.000000
H1244 H     H_    0.122793 0.290186 0.385444 0.000000
H1245 H     H_    0.077111 0.158141 0.387272 0.000000
H1246 H     H_    0.018041 0.195737 0.389004 0.000000
H1247 H     H_    0.112213 0.237716 0.323403 0.000000
H1248 H     H_    0.049077 0.249409 0.301464 0.000000
H1249 H     H_    0.944022 0.184581 0.306032 0.000000
H1250 H     H_    0.903220 0.131083 0.334304 0.000000
C1126 C     C_3   0.891555 0.300311 0.320311 0.000000
N376  N     N_3   0.892137 0.348334 0.335191 0.000000
C1127 C     C_3   0.931583 0.337541 0.346806 0.000000
C1128 C     C_R   0.906958 0.328480 0.364468 0.000000
N377  N     N_R   0.905751 0.395397 0.373727 0.000000
C1129 C     C_R   0.915283 0.373039 0.389212 0.000000
C1130 C     C_R   0.930842 0.421508 0.402885 0.000000
C1131 C     C_R   0.949285 0.390882 0.416538 0.000000
C1132 C     C_R   0.953313 0.314265 0.416285 0.000000
C1133 C     C_R   0.934755 0.264547 0.402892 0.000000
C1134 C     C_R   0.916413 0.295532 0.389414 0.000000
N378  N     N_R   0.907249 0.262546 0.374198 0.000000
H1251 H     H_    0.874715 0.234482 0.323613 0.000000
H1252 H     H_    0.862624 0.311673 0.311299 0.000000
H1253 H     H_    0.935612 0.318646 0.314245 0.000000
H1254 H     H_    0.851381 0.332665 0.341064 0.000000
H1255 H     H_    0.942238 0.282921 0.343745 0.000000
H1256 H     H_    0.971914 0.391391 0.345812 0.000000
H1257 H     H_    0.932521 0.483470 0.402880 0.000000
H1258 H     H_    0.963185 0.428019 0.427240 0.000000
H1259 H     H_    0.972163 0.294137 0.426528 0.000000
H1260 H     H_    0.939943 0.206464 0.402612 0.000000
C1135 C     C_3   0.178842 0.985303 0.403584 0.000000
N379  N     N_3   0.214372 0.064881 0.396760 0.000000
C1136 C     C_3   0.179632 0.116354 0.397093 0.000000
C1137 C     C_R   0.209358 0.189479 0.386438 0.000000
N380  N     N_R   0.248097 0.259949 0.392713 0.000000
C1138 C     C_R   0.259768 0.310802 0.379265 0.000000
C1139 C     C_R   0.301011 0.386595 0.377432 0.000000
C1140 C     C_R   0.306202 0.428471 0.362282 0.000000
C1141 C     C_R   0.265684 0.397498 0.350359 0.000000
C1142 C     C_R   0.223307 0.321607 0.352845 0.000000
C1143 C     C_R   0.226844 0.275588 0.366386 0.000000
N381  N     N_R   0.197053 0.196140 0.369802 0.000000
H1261 H     H_    0.156476 0.948915 0.393455 0.000000
H1262 H     H_    0.206017 0.952669 0.408243 0.000000
H1263 H     H_    0.148038 0.990774 0.413724 0.000000
H1264 H     H_    0.225042 0.058018 0.384184 0.000000
H1265 H     H_    0.137730 0.083603 0.392158 0.000000
H1266 H     H_    0.172593 0.134768 0.410051 0.000000
H1267 H     H_    0.329666 0.410130 0.387244 0.000000
H1268 H     H_    0.339104 0.487992 0.360252 0.000000
H1269 H     H_    0.266506 0.432401 0.339116 0.000000
H1270 H     H_    0.191813 0.296888 0.343650 0.000000
C1144 C     C_3   0.161465 0.922999 0.306227 0.000000
N382  N     N_3   0.195951 0.904478 0.318658 0.000000
C1145 C     C_3   0.210148 0.967940 0.331107 0.000000
C1146 C     C_R   0.166576 0.943389 0.345553 0.000000
N383  N     N_R   0.148728 0.865135 0.352805 0.000000
C1147 C     C_R   0.112418 0.871627 0.365325 0.000000
C1148 C     C_R   0.088353 0.816035 0.378107 0.000000
C1149 C     C_R   0.053840 0.835239 0.390122 0.000000
C1150 C     C_R   0.044181 0.908102 0.389146 0.000000
C1151 C     C_R   0.069515 0.964397 0.376352 0.000000
C1152 C     C_R   0.106218 0.946179 0.365119 0.000000
N384  N     N_R   0.141689 0.995994 0.353320 0.000000
H1271 H     H_    0.154083 0.877126 0.296308 0.000000
H1272 H     H_    0.119488 0.919418 0.312184 0.000000
H1273 H     H_    0.183989 0.984231 0.300360 0.000000
H1274 H     H_    0.234162 0.905414 0.312457 0.000000
H1275 H     H_    0.252929 0.974812 0.335585 0.000000
H1276 H     H_    0.213021 0.027154 0.325603 0.000000
H1277 H     H_    0.099648 0.762448 0.379561 0.000000
H1278 H     H_    0.033064 0.793305 0.400339 0.000000
H1279 H     H_    0.015822 0.918680 0.398619 0.000000
H1280 H     H_    0.063021 0.021904 0.375688 0.000000
C1153 C     C_3   0.132429 0.464602 0.082782 0.000000
N385  N     N_3   0.143961 0.522548 0.096224 0.000000
C1154 C     C_3   0.152387 0.601069 0.088755 0.000000
C1155 C     C_R   0.182274 0.668254 0.099860 0.000000
N386  N     N_R   0.168834 0.669134 0.117055 0.000000
C1156 C     C_R   0.199086 0.747409 0.120452 0.000000
C1157 C     C_R   0.192594 0.790127 0.134324 0.000000
C1158 C     C_R   0.230116 0.869550 0.135427 0.000000
C1159 C     C_R   0.272295 0.904034 0.122758 0.000000
C1160 C     C_R   0.272506 0.864020 0.107847 0.000000
C1161 C     C_R   0.232754 0.787273 0.106805 0.000000
N387  N     N_R   0.221373 0.741241 0.093152 0.000000
H1281 H     H_    0.172935 0.455369 0.079295 0.000000
H1282 H     H_    0.100058 0.405399 0.087163 0.000000
H1283 H     H_    0.116537 0.487591 0.071813 0.000000
H1284 H     H_    0.181871 0.524105 0.101264 0.000000
H1285 H     H_    0.179742 0.608971 0.076991 0.000000
H1286 H     H_    0.109466 0.603524 0.086555 0.000000
H1287 H     H_    0.159364 0.763881 0.144051 0.000000
H1288 H     H_    0.227959 0.903699 0.146549 0.000000
H1289 H     H_    0.303170 0.964246 0.124197 0.000000
H1290 H     H_    0.302290 0.892804 0.097369 0.000000
C1162 C     C_3   0.862057 0.802711 0.525105 0.000000
N388  N     N_3   0.851906 0.869801 0.533573 0.000000
C1163 C     C_3   0.877447 0.942969 0.523284 0.000000
C1164 C     C_R   0.865447 0.009605 0.532234 0.000000
N389  N     N_R   0.874648 0.084899 0.524740 0.000000
C1165 C     C_R   0.851958 0.121190 0.536674 0.000000
C1166 C     C_R   0.846866 0.196307 0.536283 0.000000
C1167 C     C_R   0.825371 0.223019 0.550479 0.000000
C1168 C     C_R   0.803318 0.171740 0.564191 0.000000
C1169 C     C_R   0.805455 0.094198 0.564091 0.000000
C1170 C     C_R   0.830943 0.071088 0.550286 0.000000
N390  N     N_R   0.837741 0.998920 0.548105 0.000000
H1291 H     H_    0.838753 0.744899 0.532186 0.000000
H1292 H     H_    0.845480 0.797234 0.512463 0.000000
H1293 H     H_    0.908797 0.813800 0.524468 0.000000
H1294 H     H_    0.873974 0.880493 0.544494 0.000000
H1295 H     H_    0.924631 0.957744 0.521444 0.000000
H1296 H     H_    0.857903 0.934784 0.510993 0.000000
H1297 H     H_    0.859100 0.234346 0.525475 0.000000
H1298 H     H_    0.825859 0.284422 0.550949 0.000000
H1299 H     H_    0.784989 0.193131 0.574939 0.000000
H1300 H     H_    0.790748 0.055489 0.575059 0.000000
C1171 C     C_3   0.971980 0.914144 0.599461 0.000000
N391  N     N_3   0.992159 0.966106 0.613386 0.000000
C1172 C     C_3   0.032942 0.042725 0.606765 0.000000
C1173 C     C_R   0.053301 0.095728 0.620928 0.000000
N392  N     N_R   0.016677 0.120551 0.631286 0.000000
C1174 C     C_R   0.049951 0.154510 0.643926 0.000000
C1175 C     C_R   0.032404 0.172256 0.659647 0.000000
C1176 C     C_R   0.072428 0.198038 0.671604 0.000000
C1177 C     C_R   0.129602 0.213298 0.667159 0.000000
C1178 C     C_R   0.146178 0.197709 0.651124 0.000000
C1179 C     C_R   0.104643 0.157094 0.640496 0.000000
N393  N     N_R   0.108632 0.117146 0.626146 0.000000
H1301 H     H_    0.935185 0.859628 0.603959 0.000000
H1302 H     H_    0.957529 0.946932 0.589839 0.000000
H1303 H     H_    0.007948 0.896118 0.594316 0.000000
H1304 H     H_    0.015655 0.938568 0.620141 0.000000
H1305 H     H_    0.069846 0.032257 0.600542 0.000000
H1306 H     H_    0.013098 0.072582 0.598008 0.000000
H1307 H     H_    0.988231 0.164059 0.662883 0.000000
H1308 H     H_    0.059571 0.208973 0.684262 0.000000
H1309 H     H_    0.161267 0.235889 0.676376 0.000000
H1310 H     H_    0.190613 0.217034 0.647512 0.000000
C1180 C     C_3   0.009322 0.734171 0.093063 0.000000
N394  N     N_3   0.042125 0.689904 0.100563 0.000000
C1181 C     C_3   0.034658 0.689936 0.118721 0.000000
C1182 C     C_R   0.006620 0.606492 0.125788 0.000000
N395  N     N_R   0.947680 0.569913 0.128402 0.000000
C1183 C     C_R   0.943834 0.520412 0.142074 0.000000
C1184 C     C_R   0.899786 0.490900 0.154423 0.000000
C1185 C     C_R   0.907764 0.447795 0.168095 0.000000
C1186 C     C_R   0.959106 0.434581 0.169503 0.000000
C1187 C     C_R   0.004580 0.471394 0.158064 0.000000
C1188 C     C_R   0.996238 0.517629 0.145146 0.000000
N396  N     N_R   0.037211 0.573814 0.135588 0.000000
H1311 H     H_    0.033416 0.766848 0.081548 0.000000
H1312 H     H_    0.967125 0.690069 0.089913 0.000000
H1313 H     H_    0.003521 0.781907 0.101203 0.000000
H1314 H     H_    0.085377 0.722730 0.097469 0.000000
H1315 H     H_    0.077383 0.714050 0.123913 0.000000
H1316 H     H_    0.010695 0.728550 0.123427 0.000000
H1317 H     H_    0.859665 0.501223 0.153908 0.000000
H1318 H     H_    0.873325 0.423552 0.177684 0.000000
H1319 H     H_    0.964851 0.400486 0.180180 0.000000
H1320 H     H_    0.046459 0.469682 0.160166 0.000000
C1189 C     C_3   0.066255 0.552341 0.402969 0.000000
N397  N     N_3   0.030244 0.582388 0.393209 0.000000
C1190 C     C_3   0.038993 0.560301 0.376134 0.000000
C1191 C     C_R   0.023602 0.613718 0.364593 0.000000
N398  N     N_R   0.968321 0.596355 0.359878 0.000000
C1192 C     C_R   0.975557 0.653729 0.347582 0.000000
C1193 C     C_R   0.935618 0.670340 0.338355 0.000000
C1194 C     C_R   0.955260 0.731524 0.326090 0.000000
C1195 C     C_R   0.013007 0.773168 0.322674 0.000000
C1196 C     C_R   0.052240 0.757315 0.332229 0.000000
C1197 C     C_R   0.032000 0.700316 0.345068 0.000000
N399  N     N_R   0.064042 0.677530 0.355607 0.000000
H1321 H     H_    0.058310 0.561704 0.416451 0.000000
H1322 H     H_    0.056277 0.486705 0.400471 0.000000
H1323 H     H_    0.112048 0.585048 0.399196 0.000000
H1324 H     H_    0.045733 0.645743 0.393697 0.000000
H1325 H     H_    0.084236 0.568354 0.373498 0.000000
H1326 H     H_    0.012975 0.495832 0.374082 0.000000
H1327 H     H_    0.890491 0.637637 0.340195 0.000000
H1328 H     H_    0.926064 0.746920 0.318693 0.000000
H1329 H     H_    0.026996 0.817930 0.312497 0.000000
H1330 H     H_    0.097384 0.787265 0.329226 0.000000
C1198 C     C_3   0.949518 0.213512 0.879490 0.000000
N400  N     N_3   0.976936 0.177600 0.867064 0.000000
C1199 C     C_3   0.018440 0.152522 0.875345 0.000000
C1200 C     C_R   0.048134 0.119841 0.862510 0.000000
N401  N     N_R   0.017526 0.065313 0.850968 0.000000
C1201 C     C_R   0.058472 0.072715 0.838648 0.000000
C1202 C     C_R   0.049468 0.044992 0.822581 0.000000
C1203 C     C_R   0.095340 0.069866 0.810744 0.000000
C1204 C     C_R   0.148990 0.120720 0.815189 0.000000
C1205 C     C_R   0.156941 0.149894 0.831316 0.000000
C1206 C     C_R   0.110779 0.126197 0.842921 0.000000
N402  N     N_R   0.106684 0.156447 0.858394 0.000000
H1331 H     H_    0.922968 0.241188 0.872972 0.000000
H1332 H     H_    0.921052 0.165659 0.887897 0.000000
H1333 H     H_    0.981901 0.258673 0.886813 0.000000
H1334 H     H_    0.999608 0.223656 0.858399 0.000000
H1335 H     H_    0.050391 0.205846 0.880649 0.000000
H1336 H     H_    0.996812 0.105593 0.885132 0.000000
H1337 H     H_    0.007386 0.006468 0.819116 0.000000
H1338 H     H_    0.089424 0.049151 0.797990 0.000000
H1339 H     H_    0.184610 0.139323 0.805850 0.000000
H1340 H     H_    0.198095 0.191531 0.834231 0.000000
C1207 C     C_3   0.901700 0.887958 0.357594 0.000000
N403  N     N_3   0.882260 0.955362 0.354467 0.000000
C1208 C     C_3   0.823085 0.933145 0.361249 0.000000
C1209 C     C_R   0.799697 0.993000 0.354384 0.000000
N404  N     N_R   0.826640 0.075469 0.356802 0.000000
C1210 C     C_R   0.793816 0.107652 0.348283 0.000000
C1211 C     C_R   0.790489 0.183781 0.349583 0.000000
C1212 C     C_R   0.754212 0.204959 0.339436 0.000000
C1213 C     C_R   0.720217 0.148284 0.328929 0.000000
C1214 C     C_R   0.716017 0.068031 0.330295 0.000000
C1215 C     C_R   0.752950 0.048748 0.340217 0.000000
N405  N     N_R   0.752171 0.973973 0.344641 0.000000
H1341 H     H_    0.949233 0.911197 0.358038 0.000000
H1342 H     H_    0.881599 0.858609 0.369732 0.000000
H1343 H     H_    0.889131 0.843418 0.347409 0.000000
H1344 H     H_    0.882824 0.963236 0.341472 0.000000
H1345 H     H_    0.797156 0.870378 0.357882 0.000000
H1346 H     H_    0.822395 0.936842 0.375100 0.000000
H1347 H     H_    0.812640 0.224386 0.358876 0.000000
H1348 H     H_    0.752245 0.265791 0.339643 0.000000
H1349 H     H_    0.694421 0.165518 0.320306 0.000000
H1350 H     H_    0.685407 0.023808 0.323342 0.000000
C1216 C     C_3   0.668904 0.145055 0.383598 0.000000
N406  N     N_3   0.657023 0.060512 0.388078 0.000000
C1217 C     C_3   0.655587 0.017332 0.372617 0.000000
C1218 C     C_R   0.618736 0.930705 0.374538 0.000000
N407  N     N_R   0.623534 0.875114 0.362795 0.000000
C1219 C     C_R   0.576748 0.810781 0.366984 0.000000
C1220 C     C_R   0.557593 0.744001 0.357910 0.000000
C1221 C     C_R   0.506454 0.683875 0.362946 0.000000
C1222 C     C_R   0.477159 0.691868 0.377584 0.000000
C1223 C     C_R   0.497347 0.762357 0.386535 0.000000
C1224 C     C_R   0.545932 0.824323 0.380385 0.000000
N408  N     N_R   0.571088 0.900995 0.385863 0.000000
H1351 H     H_    0.711255 0.168588 0.376727 0.000000
H1352 H     H_    0.637442 0.152816 0.375138 0.000000
H1353 H     H_    0.667305 0.178717 0.395244 0.000000
H1354 H     H_    0.617270 0.039988 0.394373 0.000000
H1355 H     H_    0.640311 0.045437 0.362296 0.000000
H1356 H     H_    0.699194 0.019554 0.369200 0.000000
H1357 H     H_    0.581993 0.746499 0.346616 0.000000
H1358 H     H_    0.489229 0.630733 0.355640 0.000000
H1359 H     H_    0.438315 0.643232 0.381972 0.000000
H1360 H     H_    0.476705 0.763786 0.398379 0.000000
C1225 C     C_3   0.529794 0.597446 0.314738 0.000000
N409  N     N_3   0.561902 0.647817 0.327372 0.000000
C1226 C     C_3   0.621119 0.677411 0.321525 0.000000
C1227 C     C_R   0.658326 0.683606 0.335649 0.000000
N410  N     N_R   0.693812 0.763301 0.338243 0.000000
C1228 C     C_R   0.745352 0.760517 0.332729 0.000000
C1229 C     C_R   0.791378 0.824631 0.325986 0.000000
C1230 C     C_R   0.830937 0.807928 0.315177 0.000000
C1231 C     C_R   0.825180 0.727929 0.311918 0.000000
C1232 C     C_R   0.783498 0.664492 0.320567 0.000000
C1233 C     C_R   0.741576 0.681649 0.330116 0.000000
N411  N     N_R   0.687660 0.629602 0.334188 0.000000
H1361 H     H_    0.485407 0.566234 0.319952 0.000000
H1362 H     H_    0.530767 0.637750 0.303890 0.000000
H1363 H     H_    0.547818 0.549613 0.311128 0.000000
H1364 H     H_    0.559745 0.613282 0.338032 0.000000
H1365 H     H_    0.630676 0.636492 0.312218 0.000000
H1366 H     H_    0.631752 0.737423 0.315263 0.000000
H1367 H     H_    0.794724 0.886686 0.327746 0.000000
H1368 H     H_    0.865071 0.857410 0.308727 0.000000
H1369 H     H_    0.853305 0.714650 0.302436 0.000000
H1370 H     H_    0.779541 0.603402 0.317538 0.000000
C1234 C     C_3   0.563219 0.021860 0.325137 0.000000
N412  N     N_3   0.517331 0.942721 0.326779 0.000000
C1235 C     C_3   0.542148 0.882451 0.330825 0.000000
C1236 C     C_R   0.580792 0.874019 0.316525 0.000000
N413  N     N_R   0.571263 0.881318 0.299591 0.000000
C1237 C     C_R   0.624456 0.897007 0.292244 0.000000
C1238 C     C_R   0.642952 0.920513 0.275830 0.000000
C1239 C     C_R   0.700538 0.937909 0.271105 0.000000
C1240 C     C_R   0.739088 0.936712 0.282935 0.000000
C1241 C     C_R   0.720299 0.917837 0.299579 0.000000
C1242 C     C_R   0.662604 0.896438 0.303878 0.000000
N414  N     N_R   0.636589 0.881965 0.319453 0.000000
H1371 H     H_    0.544557 0.068389 0.321786 0.000000
H1372 H     H_    0.584855 0.038072 0.337060 0.000000
H1373 H     H_    0.595568 0.022088 0.315238 0.000000
H1374 H     H_    0.501511 0.926998 0.315114 0.000000
H1375 H     H_    0.568353 0.904741 0.341533 0.000000
H1376 H     H_    0.507823 0.824360 0.334649 0.000000
H1377 H     H_    0.614572 0.927917 0.266816 0.000000
H1378 H     H_    0.715968 0.955834 0.258235 0.000000
H1379 H     H_    0.784384 0.953843 0.279250 0.000000
H1380 H     H_    0.750634 0.924253 0.308926 0.000000
C1243 C     C_3   0.951179 0.877658 0.888782 0.000000
N415  N     N_3   0.895725 0.886227 0.886866 0.000000
C1244 C     C_3   0.893646 0.956202 0.896218 0.000000
C1245 C     C_R   0.865431 0.002272 0.886289 0.000000
N416  N     N_R   0.823544 0.030391 0.893577 0.000000
C1246 C     C_R   0.808423 0.063103 0.880130 0.000000
C1247 C     C_R   0.764633 0.093658 0.879544 0.000000
C1248 C     C_R   0.755212 0.123819 0.864350 0.000000
C1249 C     C_R   0.794230 0.131376 0.850764 0.000000
C1250 C     C_R   0.837727 0.099931 0.851626 0.000000
C1251 C     C_R   0.841222 0.059822 0.866037 0.000000
N417  N     N_R   0.877868 0.020222 0.869062 0.000000
H1381 H     H_    0.951916 0.821285 0.882652 0.000000
H1382 H     H_    0.985980 0.930374 0.882632 0.000000
H1383 H     H_    0.957943 0.872894 0.902283 0.000000
H1384 H     H_    0.863977 0.834780 0.892353 0.000000
H1385 H     H_    0.868388 0.934966 0.908314 0.000000
H1386 H     H_    0.937533 0.996058 0.898939 0.000000
H1387 H     H_    0.736494 0.090143 0.890297 0.000000
H1388 H     H_    0.721073 0.148560 0.863550 0.000000
H1389 H     H_    0.793615 0.166717 0.839806 0.000000
H1390 H     H_    0.870209 0.113677 0.841745 0.000000
C1252 C     C_3   0.986597 0.422446 0.883334 0.000000
N418  N     N_3   0.027776 0.484650 0.872585 0.000000
C1253 C     C_3   0.027390 0.564902 0.876769 0.000000
C1254 C     C_R   0.052783 0.617770 0.861867 0.000000
N419  N     N_R   0.109072 0.632294 0.856135 0.000000
C1255 C     C_R   0.108462 0.655236 0.839951 0.000000
C1256 C     C_R   0.144652 0.649724 0.826611 0.000000
C1257 C     C_R   0.133452 0.669283 0.810650 0.000000
C1258 C     C_R   0.084499 0.687913 0.808061 0.000000
C1259 C     C_R   0.044897 0.683180 0.821307 0.000000
C1260 C     C_R   0.057501 0.665272 0.837097 0.000000
N420  N     N_R   0.020057 0.639334 0.850576 0.000000
H1391 H     H_    0.967888 0.369938 0.875502 0.000000
H1392 H     H_    0.008012 0.404425 0.893596 0.000000
H1393 H     H_    0.951468 0.441678 0.888354 0.000000
H1394 H     H_    0.013332 0.474370 0.860526 0.000000
H1395 H     H_    0.983729 0.565519 0.879626 0.000000
H1396 H     H_    0.053511 0.586337 0.887605 0.000000
H1397 H     H_    0.181033 0.630796 0.828486 0.000000
H1398 H     H_    0.162321 0.668144 0.800068 0.000000
H1399 H     H_    0.075504 0.701168 0.795482 0.000000
H1400 H     H_    0.003967 0.688935 0.819118 0.000000
C1261 C     C_3   0.061877 0.374280 0.844216 0.000000
N421  N     N_3   0.111945 0.446647 0.839826 0.000000
C1262 C     C_3   0.163294 0.430855 0.844130 0.000000
C1263 C     C_R   0.168539 0.430457 0.862702 0.000000
N422  N     N_R   0.162490 0.493621 0.872380 0.000000
C1264 C     C_R   0.145457 0.456015 0.887412 0.000000
C1265 C     C_R   0.123468 0.485024 0.901005 0.000000
C1266 C     C_R   0.095917 0.430321 0.913817 0.000000
C1267 C     C_R   0.091687 0.349504 0.913057 0.000000
C1268 C     C_R   0.117499 0.322665 0.899789 0.000000
C1269 C     C_R   0.144666 0.377321 0.887028 0.000000
N423  N     N_R   0.163991 0.359808 0.871932 0.000000
H1401 H     H_    0.056651 0.363700 0.857990 0.000000
H1402 H     H_    0.022718 0.382687 0.839832 0.000000
H1403 H     H_    0.065895 0.319557 0.838176 0.000000
H1404 H     H_    0.108411 0.494668 0.846845 0.000000
H1405 H     H_    0.156799 0.369774 0.839670 0.000000
H1406 H     H_    0.201973 0.476981 0.837829 0.000000
H1407 H     H_    0.122217 0.545728 0.901170 0.000000
H1408 H     H_    0.074670 0.449606 0.924013 0.000000
H1409 H     H_    0.068188 0.307114 0.922923 0.000000
H1410 H     H_    0.113010 0.259436 0.899304 0.000000
C1270 C     C_3   0.148138 0.895902 0.664791 0.000000
N424  N     N_3   0.140779 0.884703 0.646895 0.000000
C1271 C     C_3   0.195643 0.919117 0.637193 0.000000
C1272 C     C_R   0.183598 0.912976 0.619537 0.000000
N425  N     N_R   0.172694 0.839947 0.611225 0.000000
C1273 C     C_R   0.153567 0.857408 0.596779 0.000000
C1274 C     C_R   0.135604 0.806333 0.583610 0.000000
C1275 C     C_R   0.116343 0.834931 0.569981 0.000000
C1276 C     C_R   0.114309 0.912792 0.569850 0.000000
C1277 C     C_R   0.132871 0.964329 0.583107 0.000000
C1278 C     C_R   0.152779 0.935558 0.596570 0.000000
N426  N     N_R   0.172551 0.974577 0.610815 0.000000
H1411 H     H_    0.125145 0.837547 0.671637 0.000000
H1412 H     H_    0.194392 0.918338 0.667345 0.000000
H1413 H     H_    0.127485 0.938583 0.669563 0.000000
H1414 H     H_    0.114302 0.916057 0.643223 0.000000
H1415 H     H_    0.217774 0.982868 0.639488 0.000000
H1416 H     H_    0.225663 0.887726 0.639513 0.000000
H1417 H     H_    0.134204 0.744670 0.583839 0.000000
H1418 H     H_    0.102294 0.796021 0.559428 0.000000
H1419 H     H_    0.098407 0.932893 0.559129 0.000000
H1420 H     H_    0.133408 0.025989 0.582326 0.000000
C1279 C     C_3   0.980945 0.732757 0.612283 0.000000
N427  N     N_3   0.037463 0.726725 0.609563 0.000000
C1280 C     C_3   0.030900 0.642213 0.606282 0.000000
C1281 C     C_R   0.050177 0.606839 0.620759 0.000000
N428  N     N_R   0.105980 0.636422 0.625811 0.000000
C1282 C     C_R   0.101303 0.593280 0.640315 0.000000
C1283 C     C_R   0.142771 0.593068 0.650998 0.000000
C1284 C     C_R   0.125875 0.565596 0.667338 0.000000
C1285 C     C_R   0.068574 0.527770 0.672003 0.000000
C1286 C     C_R   0.028473 0.513005 0.660059 0.000000
C1287 C     C_R   0.046053 0.544989 0.644019 0.000000
N429  N     N_R   0.012850 0.546595 0.631307 0.000000
H1421 H     H_    0.985371 0.790953 0.618466 0.000000
H1422 H     H_    0.960392 0.728629 0.600219 0.000000
H1423 H     H_    0.953690 0.683471 0.620771 0.000000
H1424 H     H_    0.057978 0.742915 0.620756 0.000000
H1425 H     H_    0.985765 0.606251 0.604054 0.000000
H1426 H     H_    0.057096 0.639613 0.594839 0.000000
H1427 H     H_    0.187386 0.614841 0.647294 0.000000
H1428 H     H_    0.157170 0.575463 0.676662 0.000000
H1429 H     H_    0.055660 0.506491 0.684835 0.000000
H1430 H     H_    0.984766 0.475913 0.663479 0.000000
C1288 C     C_3   0.639966 0.971457 0.617205 0.000000
N430  N     N_3   0.629905 0.978465 0.599648 0.000000
C1289 C     C_3   0.682957 0.990709 0.589853 0.000000
C1290 C     C_R   0.671304 0.942914 0.574468 0.000000
N431  N     N_R   0.617293 0.910234 0.568251 0.000000
C1291 C     C_R   0.628494 0.875797 0.553937 0.000000
C1292 C     C_R   0.590260 0.829398 0.543013 0.000000
C1293 C     C_R   0.610066 0.788869 0.530609 0.000000
C1294 C     C_R   0.667627 0.796677 0.529142 0.000000
C1295 C     C_R   0.706318 0.848866 0.539436 0.000000
C1296 C     C_R   0.685675 0.887758 0.551789 0.000000
N432  N     N_R   0.713943 0.926310 0.565051 0.000000
H1431 H     H_    0.671455 0.029869 0.620771 0.000000
H1432 H     H_    0.599230 0.959965 0.624890 0.000000
H1433 H     H_    0.655907 0.920614 0.619480 0.000000
H1434 H     H_    0.623696 0.033968 0.598371 0.000000
H1435 H     H_    0.700836 0.055388 0.585699 0.000000
H1436 H     H_    0.714042 0.973989 0.597150 0.000000
H1437 H     H_    0.545674 0.821297 0.544328 0.000000
H1438 H     H_    0.580337 0.749882 0.522180 0.000000
H1439 H     H_    0.682589 0.763646 0.519610 0.000000
H1440 H     H_    0.750710 0.854750 0.538415 0.000000

loop_
_geom_bond_atom_site_label_1
_geom_bond_atom_site_label_2
_geom_bond_distance
_geom_bond_site_symmetry_2
_ccdc_geom_bond_type
Zn1   N2    2.092 .      S
Zn1   N6    2.094 .      S
Zn1   N123  2.140 .      S
Zn1   N266  2.071 .      S
Zn2   N8    2.134 1_565  S
Zn2   N12   2.098 .      S
Zn2   N15   2.060 .      S
Zn2   N269  2.217 .      S
Zn3   N5    2.074 1_565  S
Zn3   N11   2.120 .      S
Zn3   N143  2.017 .      S
Zn3   N356  2.092 .      S
Zn4   N39   2.075 .      S
Zn4   N69   2.119 .      S
Zn4   N221  2.144 .      S
Zn4   N254  2.112 .      S
Zn5   N18   2.163 .      S
Zn5   N20   2.077 .      S
Zn5   N59   2.161 .      S
Zn5   N81   2.092 .      S
Zn6   N23   2.016 .      S
Zn6   N26   2.085 .      S
Zn6   N90   2.085 .      S
Zn6   N380  2.111 .      S
Zn7   N17   2.176 .      S
Zn7   N29   2.072 1_545  S
Zn7   N98   2.129 .      S
Zn7   N416  2.148 .      S
Zn8   N27   2.130 .      S
Zn8   N33   2.137 .      S
Zn8   N146  2.097 .      S
Zn8   N261  2.177 .      S
Zn9   N35   2.176 .      S
Zn9   N194  2.152 .      S
Zn9   N291  2.105 .      S
Zn9   N387  2.111 .      S
Zn10  N38   2.081 .      S
Zn10  N134  2.137 1_565  S
Zn10  N153  2.078 .      S
Zn10  N413  2.112 .      S
Zn11  N41   2.099 .      S
Zn11  N128  2.116 .      S
Zn11  N288  2.165 .      S
Zn11  N371  2.162 .      S
Zn12  N21   2.095 .      S
Zn12  N44   2.028 .      S
Zn12  N105  2.159 .      S
Zn12  N321  2.083 .      S
Zn13  N24   2.080 .      S
Zn13  N47   2.103 .      S
Zn13  N110  2.074 .      S
Zn13  N348  2.094 .      S
Zn14  N30   2.138 .      S
Zn14  N45   2.069 .      S
Zn14  N168  2.109 .      S
Zn14  N305  2.126 .      S
Zn15  N50   2.167 .      S
Zn15  N54   2.175 .      S
Zn15  N263  2.138 .      S
Zn15  N429  2.039 1_655  S
Zn16  N57   2.144 .      S
Zn16  N60   2.126 .      S
Zn16  N281  2.199 .      S
Zn16  N420  2.071 1_655  S
Zn17  N63   2.146 .      S
Zn17  N66   2.106 .      S
Zn17  N68   2.083 .      S
Zn17  N156  2.139 .      S
Zn18  N72   2.084 .      S
Zn18  N75   2.096 .      S
Zn18  N77   2.090 .      S
Zn18  N344  2.115 .      S
Zn19  N80   2.128 .      S
Zn19  N83   2.139 .      S
Zn19  N86   2.148 .      S
Zn19  N339  2.096 1_556  S
Zn20  N89   2.114 .      S
Zn20  N92   2.157 .      S
Zn20  N96   2.099 1_545  S
Zn20  N365  2.078 .      S
Zn21  N84   2.150 .      S
Zn21  N99   2.188 1_565  S
Zn21  N228  2.143 1_565  S
Zn21  N243  2.134 1_556  S
Zn22  N101  2.139 .      S
Zn22  N104  2.115 .      S
Zn22  N107  2.098 .      S
Zn22  N162  2.217 .      S
Zn23  N111  2.083 .      S
Zn23  N113  2.117 .      S
Zn23  N116  2.076 .      S
Zn23  N411  2.141 .      S
Zn24  N119  2.131 .      S
Zn24  N180  2.160 .      S
Zn24  N218  1.997 .      S
Zn24  N258  2.045 .      S
Zn25  N122  2.114 .      S
Zn25  N126  2.050 .      S
Zn25  N129  2.070 .      S
Zn25  N363  2.143 .      S
Zn26  N3    2.043 .      S
Zn26  N102  2.054 .      S
Zn26  N131  2.146 .      S
Zn26  N272  2.086 .      S
Zn27  N114  2.116 .      S
Zn27  N135  2.131 .      S
Zn27  N201  2.116 .      S
Zn27  N212  2.116 .      S
Zn28  N9    2.172 .      S
Zn28  N137  2.191 .      S
Zn28  N141  2.014 1_545  S
Zn28  N279  2.102 .      S
Zn29  N132  2.107 .      S
Zn29  N140  2.075 .      S
Zn29  N144  2.015 .      S
Zn29  N165  1.997 .      S
Zn30  N78   2.161 .      S
Zn30  N95   2.082 .      S
Zn30  N147  2.042 .      S
Zn30  N312  2.075 .      S
Zn31  N65   2.135 .      S
Zn31  N149  2.116 .      S
Zn31  N152  2.083 .      S
Zn31  N204  2.205 .      S
Zn32  N155  2.151 .      S
Zn32  N186  2.092 .      S
Zn32  N206  2.110 .      S
Zn32  N215  2.074 .      S
Zn33  N158  2.097 .      S
Zn33  N161  2.179 .      S
Zn33  N164  1.978 .      S
Zn33  N167  2.199 .      S
Zn34  N170  2.072 .      S
Zn34  N173  2.076 .      S
Zn34  N176  2.187 .      S
Zn34  N179  2.141 .      S
Zn35  N182  2.241 .      S
Zn35  N185  2.098 .      S
Zn35  N188  2.047 .      S
Zn35  N192  2.144 .      S
Zn36  N171  2.091 .      S
Zn36  N191  2.113 .      S
Zn36  N195  2.146 .      S
Zn36  N197  2.098 .      S
Zn37  N200  2.122 .      S
Zn37  N203  2.197 .      S
Zn37  N207  2.211 .      S
Zn37  N209  2.100 .      S
Zn38  N213  2.071 .      S
Zn38  N216  2.085 .      S
Zn38  N219  2.071 .      S
Zn38  N222  2.127 .      S
Zn39  N198  2.093 .      S
Zn39  N224  2.076 1_554  S
Zn39  N227  2.131 .      S
Zn39  N231  2.065 1_554  S
Zn40  N189  2.107 1_565  S
Zn40  N233  2.176 .      S
Zn40  N236  2.060 .      S
Zn40  N240  2.055 .      S
Zn41  N234  2.169 .      S
Zn41  N242  2.070 .      S
Zn41  N245  2.084 .      S
Zn41  N248  2.138 1_545  S
Zn42  N237  2.132 .      S
Zn42  N252  2.076 .      S
Zn42  N255  2.029 .      S
Zn42  N257  2.006 1_565  S
Zn43  N150  2.139 .      S
Zn43  N260  2.125 .      S
Zn43  N383  2.137 .      S
Zn43  N399  2.033 .      S
Zn44  N264  2.091 .      S
Zn44  N267  2.091 .      S
Zn44  N270  2.191 .      S
Zn44  N275  2.107 .      S
Zn45  N273  2.074 .      S
Zn45  N276  2.131 .      S
Zn45  N278  2.097 .      S
Zn45  N282  2.145 .      S
Zn46  N42   2.101 1_565  S
Zn46  N314  2.115 .      S
Zn46  N360  2.125 .      S
Zn46  N431  2.079 .      S
Zn47  N36   2.149 .      S
Zn47  N177  2.142 .      S
Zn47  N249  2.080 .      S
Zn47  N251  2.105 .      S
Zn48  N32   2.124 .      S
Zn48  N48   2.168 1_565  S
Zn48  N336  2.173 .      S
Zn48  N408  2.111 .      S
Zn49  N51   2.154 .      S
Zn49  N71   2.061 .      S
Zn49  N285  2.114 .      S
Zn49  N287  2.126 .      S
Zn50  N87   2.084 1_554  S
Zn50  N230  2.023 1_554  S
Zn50  N290  2.116 .      S
Zn50  N302  2.062 1_554  S
Zn51  N14   2.104 .      S
Zn51  N53   2.167 .      S
Zn51  N294  2.113 .      S
Zn51  N392  2.041 1_655  S
Zn52  N296  2.169 .      S
Zn52  N299  2.084 .      S
Zn52  N303  2.062 .      S
Zn52  N306  2.084 .      S
Zn53  N309  2.047 .      S
Zn53  N311  2.099 .      S
Zn53  N315  2.149 .      S
Zn53  N318  2.103 .      S
Zn54  N225  2.068 .      S
Zn54  N300  2.011 .      S
Zn54  N320  2.100 .      S
Zn54  N323  2.093 .      S
Zn55  N327  2.010 1_565  S
Zn55  N330  2.076 .      S
Zn55  N332  2.043 .      S
Zn55  N335  2.073 .      S
Zn56  N174  2.146 .      S
Zn56  N246  2.103 .      S
Zn56  N338  2.065 .      S
Zn56  N341  2.168 .      S
Zn57  N333  2.130 .      S
Zn57  N345  2.068 .      S
Zn57  N347  2.178 .      S
Zn57  N350  1.998 .      S
Zn58  N353  2.068 .      S
Zn58  N357  2.098 .      S
Zn58  N359  2.085 .      S
Zn58  N362  2.166 .      S
Zn59  N317  2.081 .      S
Zn59  N366  2.062 .      S
Zn59  N368  2.070 .      S
Zn59  N372  2.115 .      S
Zn60  N326  2.073 .      S
Zn60  N375  2.083 .      S
Zn60  N378  2.128 .      S
Zn60  N404  2.111 .      S
Zn61  N210  2.023 .      S
Zn61  N374  2.120 .      S
Zn61  N381  2.122 .      S
Zn61  N384  2.141 1_545  S
Zn62  N62   2.154 .      S
Zn62  N183  2.139 .      S
Zn62  N386  2.134 .      S
Zn62  N396  2.017 .      S
Zn63  N74   2.198 .      S
Zn63  N93   2.144 .      S
Zn63  N329  2.099 .      S
Zn63  N389  2.078 .      S
Zn64  N125  2.115 .      S
Zn64  N369  2.106 .      S
Zn64  N393  2.100 .      S
Zn64  N426  2.168 1_545  S
Zn65  N120  1.994 .      S
Zn65  N239  2.048 .      S
Zn65  N342  2.125 .      S
Zn65  N395  2.122 .      S
Zn66  N117  2.096 .      S
Zn66  N351  2.099 .      S
Zn66  N377  2.133 .      S
Zn66  N398  2.067 .      S
Zn67  N108  2.104 .      S
Zn67  N324  2.126 .      S
Zn67  N402  2.158 .      S
Zn67  N423  2.171 .      S
Zn68  N405  2.100 .      S
Zn68  N407  2.117 .      S
Zn68  N410  2.116 .      S
Zn68  N414  2.088 .      S
Zn69  N56   2.156 .      S
Zn69  N138  2.198 1_565  S
Zn69  N401  2.118 1_665  S
Zn69  N417  2.171 1_565  S
Zn70  N159  2.085 .      S
Zn70  N297  2.149 .      S
Zn70  N419  2.112 .      S
Zn70  N422  2.138 .      S
Zn71  N308  2.086 .      S
Zn71  N354  2.100 .      S
Zn71  N425  2.134 .      S
Zn71  N428  2.083 .      S
Zn72  N284  2.154 .      S
Zn72  N293  2.127 .      S
Zn72  N390  2.057 .      S
Zn72  N432  2.074 .      S
C1    N1    1.442 .      S
C1    H1    1.109 .      S
C1    H2    1.087 .      S
C1    H3    1.092 .      S
N1    C2    1.444 .      S
N1    H4    1.040 .      S
C2    C3    1.485 .      S
C2    H5    1.078 .      S
C2    H6    1.084 .      S
C5    H7    1.062 .      S
C6    H8    1.078 .      S
C7    H9    1.081 .      S
C8    H10   1.068 .      S
C10   N4    1.456 .      S
C10   H11   1.108 1_545  S
C10   H12   1.108 1_545  S
C10   H13   1.109 .      S
N4    C11   1.445 .      S
N4    H14   1.039 .      S
C11   C12   1.488 .      S
C11   H15   1.107 .      S
C11   H16   1.095 .      S
N5    Zn3   2.074 1_545  S
C14   H17   1.067 .      S
C15   H18   1.054 .      S
C16   H19   1.074 .      S
C17   H20   1.043 .      S
H11   C10   1.108 1_565  S
H12   C10   1.108 1_565  S
C19   N7    1.449 .      S
C19   H21   1.103 .      S
C19   H22   1.099 .      S
C19   H23   1.088 .      S
N7    C20   1.441 .      S
N7    H24   1.036 .      S
C20   C21   1.461 .      S
C20   H25   1.071 .      S
C20   H26   1.077 .      S
N8    Zn2   2.134 1_545  S
C23   H27   1.073 .      S
C24   H28   1.081 1_655  S
C25   H29   1.081 1_655  S
C26   H30   1.065 .      S
H28   C24   1.081 1_455  S
H29   C25   1.081 1_455  S
C28   N10   1.445 .      S
C28   H31   1.102 .      S
C28   H32   1.104 .      S
C28   H33   1.106 .      S
N10   C29   1.465 .      S
N10   H34   1.037 .      S
C29   C30   1.500 1_545  S
C29   H35   1.095 .      S
C29   H36   1.101 .      S
C30   C29   1.500 1_565  S
C32   H37   1.057 .      S
C33   H38   1.073 .      S
C34   H39   1.076 .      S
C35   H40   1.075 .      S
C37   N13   1.452 .      S
C37   H41   1.108 .      S
C37   H42   1.107 .      S
C37   H43   1.109 .      S
N13   C38   1.436 .      S
N13   H44   1.043 .      S
C38   C39   1.465 .      S
C38   H45   1.095 .      S
C38   H46   1.099 1_545  S
C41   H47   1.055 .      S
C42   H48   1.071 .      S
C43   H49   1.079 1_655  S
C44   H50   1.057 .      S
H46   C38   1.099 1_565  S
H49   C43   1.079 1_455  S
C46   N16   1.452 .      S
C46   H51   1.103 .      S
C46   H52   1.108 .      S
C46   H53   1.105 .      S
N16   C47   1.448 .      S
N16   H54   1.044 .      S
C47   C48   1.472 .      S
C47   H55   1.096 .      S
C47   H56   1.101 .      S
C50   H57   1.045 .      S
C51   H58   1.080 .      S
C52   H59   1.079 .      S
C53   H60   1.065 .      S
C55   N19   1.457 .      S
C55   H61   1.109 .      S
C55   H62   1.100 .      S
C55   H63   1.104 .      S
N19   C56   1.458 .      S
N19   H64   1.041 .      S
C56   C57   1.487 .      S
C56   H65   1.106 .      S
C56   H66   1.109 .      S
C59   H67   1.080 .      S
C60   H68   1.080 .      S
C61   H69   1.081 .      S
C62   H70   1.076 .      S
C64   N22   1.450 .      S
C64   H71   1.104 .      S
C64   H72   1.108 .      S
C64   H73   1.106 .      S
N22   C65   1.450 .      S
N22   H74   1.041 .      S
C65   C66   1.485 .      S
C65   H75   1.097 .      S
C65   H76   1.103 .      S
C68   H77   1.071 .      S
C69   H78   1.075 .      S
C70   H79   1.081 .      S
C71   H80   1.056 .      S
C73   N25   1.446 .      S
C73   H81   1.106 .      S
C73   H82   1.105 .      S
C73   H83   1.104 .      S
N25   C74   1.445 .      S
N25   H84   1.041 .      S
C74   C75   1.477 .      S
C74   H85   1.104 .      S
C74   H86   1.100 .      S
C77   H87   1.078 .      S
C78   H88   1.081 .      S
C79   H89   1.077 .      S
C80   H90   1.076 .      S
C82   N28   1.454 .      S
C82   H91   1.108 .      S
C82   H92   1.097 .      S
C82   H93   1.096 .      S
N28   C83   1.456 .      S
N28   H94   1.041 .      S
C83   C84   1.476 .      S
C83   H95   1.093 .      S
C83   H96   1.102 .      S
N29   Zn7   2.072 1_565  S
C86   H97   1.080 1_565  S
C87   H98   1.072 1_565  S
C88   H99   1.080 .      S
C89   H100  1.076 .      S
H97   C86   1.080 1_545  S
H98   C87   1.072 1_545  S
C91   N31   1.451 .      S
C91   H101  1.105 .      S
C91   H102  1.108 .      S
C91   H103  1.091 .      S
N31   C92   1.440 .      S
N31   H104  1.044 .      S
C92   C93   1.469 .      S
C92   H105  1.094 .      S
C92   H106  1.106 .      S
C95   H107  1.071 .      S
C96   H108  1.081 .      S
C97   H109  1.080 .      S
C98   H110  1.063 .      S
C100  N34   1.451 .      S
C100  H111  1.106 .      S
C100  H112  1.108 .      S
C100  H113  1.108 .      S
N34   C101  1.435 .      S
N34   H114  1.038 .      S
C101  C102  1.477 .      S
C101  H115  1.105 .      S
C101  H116  1.108 .      S
C104  H117  1.045 .      S
C105  H118  1.076 1_565  S
C106  H119  1.081 .      S
C107  H120  1.073 .      S
H118  C105  1.076 1_545  S
C109  N37   1.452 .      S
C109  H121  1.109 .      S
C109  H122  1.106 .      S
C109  H123  1.103 .      S
N37   C110  1.452 .      S
N37   H124  1.039 .      S
C110  C111  1.489 .      S
C110  H125  1.108 .      S
C110  H126  1.106 .      S
C113  H127  1.053 1_565  S
C114  H128  1.062 .      S
C115  H129  1.076 .      S
C116  H130  1.053 .      S
H127  C113  1.053 1_545  S
C118  N40   1.455 .      S
C118  H131  1.108 .      S
C118  H132  1.104 .      S
C118  H133  1.102 .      S
N40   C119  1.445 .      S
N40   H134  1.041 .      S
C119  C120  1.482 .      S
C119  H135  1.100 .      S
C119  H136  1.094 .      S
C122  H137  1.055 .      S
C123  H138  1.081 .      S
C124  H139  1.081 .      S
C125  H140  1.058 .      S
N42   Zn46  2.101 1_545  S
C127  N43   1.439 .      S
C127  H141  1.096 .      S
C127  H142  1.104 .      S
C127  H143  1.102 .      S
N43   C128  1.447 .      S
N43   H144  1.043 .      S
C128  C129  1.454 .      S
C128  H145  1.099 .      S
C128  H146  1.089 .      S
C131  H147  1.061 .      S
C132  H148  1.080 .      S
C133  H149  1.081 .      S
C134  H150  1.048 .      S
C136  N46   1.446 .      S
C136  H151  1.110 1_545  S
C136  H152  1.102 1_545  S
C136  H153  1.109 .      S
N46   C137  1.457 .      S
N46   H154  1.035 .      S
C137  C138  1.507 .      S
C137  H155  1.109 .      S
C137  H156  1.109 .      S
C140  H157  1.064 .      S
C141  H158  1.079 .      S
C142  H159  1.070 .      S
C143  H160  1.070 1_545  S
N48   Zn48  2.168 1_545  S
H151  C136  1.110 1_565  S
H152  C136  1.102 1_565  S
H160  C143  1.070 1_565  S
C145  N49   1.454 .      S
C145  H161  1.107 .      S
C145  H162  1.100 .      S
C145  H163  1.109 .      S
N49   C146  1.452 .      S
N49   H164  1.043 .      S
C146  C147  1.493 .      S
C146  H165  1.100 .      S
C146  H166  1.108 .      S
C149  H167  1.044 .      S
C150  H168  1.080 .      S
C151  H169  1.069 .      S
C152  H170  1.046 .      S
C154  N52   1.451 .      S
C154  H171  1.108 .      S
C154  H172  1.109 1_655  S
C154  H173  1.106 .      S
N52   C155  1.459 .      S
N52   H174  1.043 .      S
C155  C156  1.461 .      S
C155  H175  1.077 1_655  S
C155  H176  1.096 1_655  S
C158  H177  1.058 .      S
C159  H178  1.067 .      S
C160  H179  1.071 .      S
C161  H180  1.065 .      S
H172  C154  1.109 1_455  S
H175  C155  1.077 1_455  S
H176  C155  1.096 1_455  S
C163  N55   1.454 .      S
C163  H181  1.107 .      S
C163  H182  1.100 .      S
C163  H183  1.109 .      S
N55   C164  1.452 .      S
N55   H184  1.042 .      S
C164  C165  1.484 1_455  S
C164  H185  1.105 .      S
C164  H186  1.108 .      S
C165  C164  1.484 1_655  S
C167  H187  1.072 .      S
C168  H188  1.076 .      S
C169  H189  1.081 .      S
C170  H190  1.068 .      S
C172  N58   1.450 .      S
C172  H191  1.108 .      S
C172  H192  1.103 .      S
C172  H193  1.108 .      S
N58   C173  1.446 .      S
N58   H194  1.041 .      S
C173  C174  1.482 .      S
C173  H195  1.107 .      S
C173  H196  1.107 .      S
C176  H197  1.050 .      S
C177  H198  1.056 .      S
C178  H199  1.081 .      S
C179  H200  1.056 .      S
C181  N61   1.459 .      S
C181  H201  1.101 .      S
C181  H202  1.106 .      S
C181  H203  1.102 .      S
N61   C182  1.445 .      S
N61   H204  1.040 .      S
C182  C183  1.484 .      S
C182  H205  1.075 .      S
C182  H206  1.089 .      S
C185  H207  1.069 .      S
C186  H208  1.079 1_455  S
C187  H209  1.081 .      S
C188  H210  1.066 .      S
H208  C186  1.079 1_655  S
C190  N64   1.453 .      S
C190  H211  1.108 .      S
C190  H212  1.107 .      S
C190  H213  1.106 .      S
N64   C191  1.452 .      S
N64   H214  1.039 .      S
C191  C192  1.474 .      S
C191  H215  1.097 .      S
C191  H216  1.093 .      S
C194  H217  1.068 .      S
C195  H218  1.080 .      S
C196  H219  1.080 .      S
C197  H220  1.079 .      S
C199  N67   1.449 1_545  S
C199  H221  1.092 .      S
C199  H222  1.096 .      S
C199  H223  1.104 1_545  S
N67   C199  1.449 1_565  S
N67   C200  1.450 .      S
N67   H224  1.038 .      S
C200  C201  1.466 .      S
C200  H225  1.095 .      S
C200  H226  1.092 .      S
C203  H227  1.071 .      S
C204  H228  1.061 .      S
C205  H229  1.079 .      S
C206  H230  1.071 .      S
H223  C199  1.104 1_565  S
C208  N70   1.449 .      S
C208  H231  1.107 .      S
C208  H232  1.108 .      S
C208  H233  1.107 .      S
N70   C209  1.445 .      S
N70   H234  1.039 .      S
C209  C210  1.479 .      S
C209  H235  1.097 .      S
C209  H236  1.098 .      S
C212  H237  1.073 .      S
C213  H238  1.078 1_655  S
C214  H239  1.078 .      S
C215  H240  1.066 1_655  S
H238  C213  1.078 1_455  S
H240  C215  1.066 1_455  S
C217  N73   1.449 .      S
C217  H241  1.103 .      S
C217  H242  1.097 1_655  S
C217  H243  1.107 .      S
N73   C218  1.456 .      S
N73   H244  1.044 .      S
C218  C219  1.481 .      S
C218  H245  1.102 .      S
C218  H246  1.095 1_655  S
C221  H247  1.054 .      S
C222  H248  1.081 .      S
C223  H249  1.072 .      S
C224  H250  1.073 .      S
H242  C217  1.097 1_455  S
H246  C218  1.095 1_455  S
C226  N76   1.437 .      S
C226  H251  1.100 .      S
C226  H252  1.106 .      S
C226  H253  1.109 .      S
N76   C227  1.438 1_655  S
N76   H254  1.043 .      S
C227  N76   1.438 1_455  S
C227  C228  1.457 .      S
C227  H255  1.098 .      S
C227  H256  1.098 .      S
C230  H257  1.070 1_455  S
C231  H258  1.081 .      S
C232  H259  1.062 .      S
C233  H260  1.058 .      S
H257  C230  1.070 1_655  S
C235  N79   1.452 .      S
C235  H261  1.105 .      S
C235  H262  1.103 .      S
C235  H263  1.102 .      S
N79   C236  1.449 .      S
N79   H264  1.040 .      S
C236  C237  1.482 .      S
C236  H265  1.104 .      S
C236  H266  1.108 .      S
C239  H267  1.061 1_655  S
C240  H268  1.075 .      S
C241  H269  1.068 1_655  S
C242  H270  1.065 .      S
H267  C239  1.061 1_455  S
H269  C241  1.068 1_455  S
C244  N82   1.451 .      S
C244  H271  1.106 .      S
C244  H272  1.109 .      S
C244  H273  1.104 .      S
N82   C245  1.461 .      S
N82   H274  1.040 .      S
C245  C246  1.490 1_554  S
C245  H275  1.090 .      S
C245  H276  1.090 .      S
C246  C245  1.490 1_556  S
C248  H277  1.052 .      S
C249  H278  1.079 .      S
C250  H279  1.077 .      S
C251  H280  1.046 .      S
C253  N85   1.444 .      S
C253  H281  1.095 .      S
C253  H282  1.106 .      S
C253  H283  1.103 1_655  S
N85   C254  1.443 1_654  S
N85   H284  1.043 .      S
C254  N85   1.443 1_456  S
C254  C255  1.473 .      S
C254  H285  1.096 .      S
C254  H286  1.106 1_455  S
C257  H287  1.058 .      S
C258  H288  1.074 .      S
C259  H289  1.071 .      S
C260  H290  1.073 .      S
N87   Zn50  2.084 1_556  S
H283  C253  1.103 1_455  S
H286  C254  1.106 1_655  S
C262  N88   1.446 .      S
C262  H291  1.106 .      S
C262  H292  1.107 .      S
C262  H293  1.093 .      S
N88   C263  1.444 .      S
N88   H294  1.044 .      S
C263  C264  1.473 .      S
C263  H295  1.102 .      S
C263  H296  1.107 .      S
C266  H297  1.070 1_545  S
C267  H298  1.079 .      S
C268  H299  1.081 .      S
C269  H300  1.070 .      S
H297  C266  1.070 1_565  S
C271  N91   1.451 1_565  S
C271  H301  1.106 .      S
C271  H302  1.105 .      S
C271  H303  1.104 1_455  S
N91   C271  1.451 1_545  S
N91   C272  1.452 .      S
N91   H304  1.044 .      S
C272  C273  1.480 .      S
C272  H305  1.103 1_455  S
C272  H306  1.108 1_445  S
C275  H307  1.066 .      S
C276  H308  1.080 .      S
C277  H309  1.070 .      S
C278  H310  1.077 1_455  S
H303  C271  1.104 1_655  S
H305  C272  1.103 1_655  S
H306  C272  1.108 1_665  S
H310  C278  1.077 1_655  S
C280  N94   1.457 1_545  S
C280  H311  1.107 .      S
C280  H312  1.108 1_545  S
C280  H313  1.107 .      S
N94   C280  1.457 1_565  S
N94   C281  1.452 .      S
N94   H314  1.044 1_565  S
C281  C282  1.492 .      S
C281  H315  1.099 1_565  S
C281  H316  1.107 .      S
C284  H317  1.074 .      S
C285  H318  1.067 .      S
C286  H319  1.080 .      S
C287  H320  1.072 1_565  S
N96   Zn20  2.099 1_565  S
H312  C280  1.108 1_565  S
H314  N94   1.044 1_545  S
H315  C281  1.099 1_545  S
H320  C287  1.072 1_545  S
C289  N97   1.453 .      S
C289  H321  1.108 .      S
C289  H322  1.109 .      S
C289  H323  1.108 .      S
N97   C290  1.451 .      S
N97   H324  1.044 .      S
C290  C291  1.491 .      S
C290  H325  1.103 .      S
C290  H326  1.106 .      S
C293  H327  1.059 .      S
C294  H328  1.078 1_655  S
C295  H329  1.080 .      S
C296  H330  1.067 .      S
N99   Zn21  2.188 1_545  S
H328  C294  1.078 1_455  S
C298  N100  1.449 .      S
C298  H331  1.107 .      S
C298  H332  1.105 .      S
C298  H333  1.104 .      S
N100  C299  1.443 .      S
N100  H334  1.036 .      S
C299  C300  1.468 .      S
C299  H335  1.090 .      S
C299  H336  1.102 .      S
C302  H337  1.053 .      S
C303  H338  1.080 .      S
C304  H339  1.081 .      S
C305  H340  1.052 .      S
C307  N103  1.437 .      S
C307  H341  1.103 .      S
C307  H342  1.102 .      S
C307  H343  1.108 .      S
N103  C308  1.437 .      S
N103  H344  1.034 .      S
C308  C309  1.469 .      S
C308  H345  1.082 .      S
C308  H346  1.091 .      S
C311  H347  1.073 .      S
C312  H348  1.072 .      S
C313  H349  1.080 .      S
C314  H350  1.042 .      S
C316  N106  1.446 .      S
C316  H351  1.107 1_545  S
C316  H352  1.109 .      S
C316  H353  1.096 .      S
N106  C317  1.448 .      S
N106  H354  1.041 .      S
C317  C318  1.481 .      S
C317  H355  1.104 .      S
C317  H356  1.103 .      S
C320  H357  1.073 .      S
C321  H358  1.077 .      S
C322  H359  1.081 .      S
C323  H360  1.054 .      S
H351  C316  1.107 1_565  S
C325  N109  1.454 .      S
C325  H361  1.101 .      S
C325  H362  1.105 .      S
C325  H363  1.096 .      S
N109  C326  1.443 .      S
N109  H364  1.039 .      S
C326  C327  1.491 .      S
C326  H365  1.098 .      S
C326  H366  1.099 .      S
C329  H367  1.068 .      S
C330  H368  1.074 .      S
C331  H369  1.080 .      S
C332  H370  1.075 .      S
C334  N112  1.448 .      S
C334  H371  1.105 .      S
C334  H372  1.106 .      S
C334  H373  1.109 .      S
N112  C335  1.448 .      S
N112  H374  1.037 .      S
C335  C336  1.473 .      S
C335  H375  1.097 .      S
C335  H376  1.101 .      S
C338  H377  1.060 .      S
C339  H378  1.081 .      S
C340  H379  1.081 .      S
C341  H380  1.059 .      S
C343  N115  1.441 .      S
C343  H381  1.100 .      S
C343  H382  1.103 .      S
C343  H383  1.094 .      S
N115  C344  1.435 .      S
N115  H384  1.026 .      S
C344  C345  1.481 .      S
C344  H385  1.083 .      S
C344  H386  1.086 .      S
C347  H387  1.066 .      S
C348  H388  1.081 .      S
C349  H389  1.081 .      S
C350  H390  1.076 .      S
C352  N118  1.440 .      S
C352  H391  1.097 .      S
C352  H392  1.108 .      S
C352  H393  1.108 .      S
N118  C353  1.454 .      S
N118  H394  1.039 .      S
C353  C354  1.469 .      S
C353  H395  1.082 .      S
C353  H396  1.092 .      S
C356  H397  1.048 .      S
C357  H398  1.080 .      S
C358  H399  1.062 .      S
C359  H400  1.062 .      S
C361  N121  1.435 .      S
C361  H401  1.106 .      S
C361  H402  1.095 .      S
C361  H403  1.101 .      S
N121  C362  1.444 .      S
N121  H404  1.042 .      S
C362  C363  1.470 .      S
C362  H405  1.108 .      S
C362  H406  1.107 .      S
C365  H407  1.044 .      S
C366  H408  1.081 .      S
C367  H409  1.081 .      S
C368  H410  1.056 .      S
C370  N124  1.444 .      S
C370  H411  1.105 .      S
C370  H412  1.098 .      S
C370  H413  1.096 .      S
N124  C371  1.451 .      S
N124  H414  1.031 .      S
C371  C372  1.463 .      S
C371  H415  1.101 .      S
C371  H416  1.102 .      S
C374  H417  1.078 .      S
C375  H418  1.080 .      S
C376  H419  1.081 .      S
C377  H420  1.062 .      S
C379  N127  1.446 .      S
C379  H421  1.097 .      S
C379  H422  1.098 .      S
C379  H423  1.108 .      S
N127  C380  1.436 .      S
N127  H424  1.038 .      S
C380  C381  1.473 .      S
C380  H425  1.090 .      S
C380  H426  1.088 .      S
C383  H427  1.059 .      S
C384  H428  1.076 .      S
C385  H429  1.080 .      S
C386  H430  1.079 .      S
C388  N130  1.435 .      S
C388  H431  1.093 .      S
C388  H432  1.098 .      S
C388  H433  1.105 .      S
N130  C389  1.444 .      S
N130  H434  1.044 .      S
C389  C390  1.457 .      S
C389  H435  1.101 .      S
C389  H436  1.099 .      S
C392  H437  1.071 .      S
C393  H438  1.069 .      S
C394  H439  1.066 .      S
C395  H440  1.071 .      S
C397  N133  1.455 .      S
C397  H441  1.109 .      S
C397  H442  1.109 .      S
C397  H443  1.109 .      S
N133  C398  1.445 .      S
N133  H444  1.041 .      S
C398  C399  1.481 .      S
C398  H445  1.097 .      S
C398  H446  1.104 .      S
N134  Zn10  2.137 1_545  S
C401  H447  1.073 .      S
C402  H448  1.079 .      S
C403  H449  1.079 .      S
C404  H450  1.068 .      S
C406  N136  1.447 .      S
C406  H451  1.108 .      S
C406  H452  1.106 .      S
C406  H453  1.105 .      S
N136  C407  1.446 .      S
N136  H454  1.043 .      S
C407  C408  1.473 1_565  S
C407  H455  1.090 .      S
C407  H456  1.103 .      S
C408  C407  1.473 1_545  S
C410  H457  1.067 .      S
C411  H458  1.074 1_655  S
C412  H459  1.078 .      S
C413  H460  1.065 1_655  S
N138  Zn69  2.198 1_545  S
H458  C411  1.074 1_455  S
H460  C413  1.065 1_455  S
C415  N139  1.450 .      S
C415  H461  1.108 .      S
C415  H462  1.106 .      S
C415  H463  1.103 .      S
N139  C416  1.451 .      S
N139  H464  1.043 .      S
C416  C417  1.487 1_545  S
C416  H465  1.102 .      S
C416  H466  1.104 1_545  S
C417  C416  1.487 1_565  S
C419  H467  1.054 .      S
C420  H468  1.068 .      S
C421  H469  1.081 .      S
C422  H470  1.074 .      S
N141  Zn28  2.014 1_565  S
H466  C416  1.104 1_565  S
C424  N142  1.441 .      S
C424  H471  1.107 .      S
C424  H472  1.094 .      S
C424  H473  1.104 .      S
N142  C425  1.450 .      S
N142  H474  1.036 .      S
C425  C426  1.460 .      S
C425  H475  1.103 .      S
C425  H476  1.088 .      S
C428  H477  1.073 .      S
C429  H478  1.080 .      S
C430  H479  1.081 .      S
C431  H480  1.065 .      S
C433  N145  1.452 .      S
C433  H481  1.108 .      S
C433  H482  1.104 .      S
C433  H483  1.108 .      S
N145  C434  1.446 .      S
N145  H484  1.036 .      S
C434  C435  1.479 .      S
C434  H485  1.097 .      S
C434  H486  1.094 .      S
C437  H487  1.063 .      S
C438  H488  1.065 .      S
C439  H489  1.080 .      S
C440  H490  1.077 .      S
C442  N148  1.442 .      S
C442  H491  1.109 .      S
C442  H492  1.106 .      S
C442  H493  1.102 .      S
N148  C443  1.448 .      S
N148  H494  1.040 .      S
C443  C444  1.480 .      S
C443  H495  1.106 .      S
C443  H496  1.106 .      S
C446  H497  1.059 .      S
C447  H498  1.081 .      S
C448  H499  1.078 .      S
C449  H500  1.062 .      S
C451  N151  1.436 .      S
C451  H501  1.086 .      S
C451  H502  1.105 .      S
C451  H503  1.108 .      S
N151  C452  1.436 .      S
N151  H504  1.043 .      S
C452  C453  1.448 .      S
C452  H505  1.100 .      S
C452  H506  1.106 .      S
C455  H507  1.080 .      S
C456  H508  1.074 .      S
C457  H509  1.072 .      S
C458  H510  1.068 .      S
C460  N154  1.438 .      S
C460  H511  1.109 1_545  S
C460  H512  1.084 1_545  S
C460  H513  1.091 .      S
N154  C461  1.433 1_545  S
N154  H514  1.040 .      S
C461  N154  1.433 1_565  S
C461  C462  1.449 .      S
C461  H515  1.093 .      S
C461  H516  1.100 .      S
C464  H517  1.058 .      S
C465  H518  1.078 .      S
C466  H519  1.073 .      S
C467  H520  1.059 .      S
H511  C460  1.109 1_565  S
H512  C460  1.084 1_565  S
C469  N157  1.452 .      S
C469  H521  1.108 .      S
C469  H522  1.096 .      S
C469  H523  1.108 .      S
N157  C470  1.441 .      S
N157  H524  1.034 .      S
C470  C471  1.481 .      S
C470  H525  1.078 .      S
C470  H526  1.105 .      S
C473  H527  1.072 .      S
C474  H528  1.071 .      S
C475  H529  1.063 .      S
C476  H530  1.059 .      S
C478  N160  1.452 .      S
C478  H531  1.098 .      S
C478  H532  1.108 .      S
C478  H533  1.109 .      S
N160  C479  1.451 .      S
N160  H534  1.038 .      S
C479  C480  1.489 .      S
C479  H535  1.092 .      S
C479  H536  1.108 .      S
C482  H537  1.073 .      S
C483  H538  1.081 .      S
C484  H539  1.081 .      S
C485  H540  1.058 .      S
C487  N163  1.447 1_545  S
C487  H541  1.107 .      S
C487  H542  1.105 .      S
C487  H543  1.100 .      S
N163  C487  1.447 1_565  S
N163  C488  1.451 .      S
N163  H544  1.043 .      S
C488  C489  1.482 .      S
C488  H545  1.101 .      S
C488  H546  1.104 .      S
C491  H547  1.061 .      S
C492  H548  1.081 .      S
C493  H549  1.081 .      S
C494  H550  1.050 .      S
C496  N166  1.429 .      S
C496  H551  1.074 .      S
C496  H552  1.094 .      S
C496  H553  1.077 .      S
N166  C497  1.430 .      S
N166  H554  1.041 .      S
C497  C498  1.446 .      S
C497  H555  1.075 .      S
C497  H556  1.082 .      S
C500  H557  1.058 .      S
C501  H558  1.076 .      S
C502  H559  1.079 .      S
C503  H560  1.074 .      S
C505  N169  1.452 .      S
C505  H561  1.109 .      S
C505  H562  1.108 .      S
C505  H563  1.108 .      S
N169  C506  1.454 .      S
N169  H564  1.042 .      S
C506  C507  1.491 .      S
C506  H565  1.102 .      S
C506  H566  1.102 .      S
C509  H567  1.055 .      S
C510  H568  1.081 .      S
C511  H569  1.076 .      S
C512  H570  1.052 .      S
C514  N172  1.458 .      S
C514  H571  1.109 .      S
C514  H572  1.105 .      S
C514  H573  1.108 .      S
N172  C515  1.448 .      S
N172  H574  1.044 .      S
C515  C516  1.501 .      S
C515  H575  1.098 .      S
C515  H576  1.092 .      S
C518  H577  1.066 .      S
C519  H578  1.079 .      S
C520  H579  1.073 .      S
C521  H580  1.079 .      S
C523  N175  1.450 .      S
C523  H581  1.098 .      S
C523  H582  1.091 .      S
C523  H583  1.099 .      S
N175  C524  1.434 .      S
N175  H584  1.039 .      S
C524  C525  1.468 .      S
C524  H585  1.095 .      S
C524  H586  1.106 .      S
C527  H587  1.043 .      S
C528  H588  1.079 .      S
C529  H589  1.066 .      S
C530  H590  1.059 .      S
C532  N178  1.440 .      S
C532  H591  1.091 .      S
C532  H592  1.091 .      S
C532  H593  1.080 .      S
N178  C533  1.448 .      S
N178  H594  1.043 .      S
C533  C534  1.440 .      S
C533  H595  1.090 .      S
C533  H596  1.092 .      S
C536  H597  1.056 .      S
C537  H598  1.079 .      S
C538  H599  1.069 .      S
C539  H600  1.062 .      S
C541  N181  1.451 .      S
C541  H601  1.109 .      S
C541  H602  1.106 .      S
C541  H603  1.109 .      S
N181  C542  1.452 .      S
N181  H604  1.044 .      S
C542  C543  1.488 .      S
C542  H605  1.104 .      S
C542  H606  1.091 .      S
C545  H607  1.056 .      S
C546  H608  1.066 .      S
C547  H609  1.073 .      S
C548  H610  1.067 .      S
C550  N184  1.452 1_565  S
C550  H611  1.105 .      S
C550  H612  1.105 .      S
C550  H613  1.109 .      S
N184  C550  1.452 1_545  S
N184  C551  1.448 .      S
N184  H614  1.043 .      S
C551  C552  1.488 .      S
C551  H615  1.109 .      S
C551  H616  1.107 .      S
C554  H617  1.077 .      S
C555  H618  1.078 .      S
C556  H619  1.070 .      S
C557  H620  1.076 .      S
C559  N187  1.455 .      S
C559  H621  1.109 .      S
C559  H622  1.103 1_545  S
C559  H623  1.105 .      S
N187  C560  1.449 .      S
N187  H624  1.034 .      S
C560  C561  1.498 .      S
C560  H625  1.106 1_545  S
C560  H626  1.102 1_545  S
C563  H627  1.071 .      S
C564  H628  1.081 .      S
C565  H629  1.081 .      S
C566  H630  1.067 1_545  S
N189  Zn40  2.107 1_545  S
H622  C559  1.103 1_565  S
H625  C560  1.106 1_565  S
H626  C560  1.102 1_565  S
H630  C566  1.067 1_565  S
C568  N190  1.450 .      S
C568  H631  1.105 .      S
C568  H632  1.105 .      S
C568  H633  1.105 .      S
N190  C569  1.454 .      S
N190  H634  1.033 .      S
C569  C570  1.473 .      S
C569  H635  1.099 .      S
C569  H636  1.080 .      S
C572  H637  1.076 .      S
C573  H638  1.080 .      S
C574  H639  1.064 .      S
C575  H640  1.054 .      S
C577  N193  1.452 .      S
C577  H641  1.098 .      S
C577  H642  1.107 .      S
C577  H643  1.101 .      S
N193  C578  1.446 .      S
N193  H644  1.044 .      S
C578  C579  1.478 .      S
C578  H645  1.107 1_565  S
C578  H646  1.097 .      S
C581  H647  1.061 .      S
C582  H648  1.081 .      S
C583  H649  1.081 .      S
C584  H650  1.064 .      S
H645  C578  1.107 1_545  S
C586  N196  1.445 .      S
C586  H651  1.106 1_554  S
C586  H652  1.097 .      S
C586  H653  1.100 1_554  S
N196  C587  1.442 .      S
N196  H654  1.030 .      S
C587  C588  1.492 .      S
C587  H655  1.101 .      S
C587  H656  1.107 .      S
C590  H657  1.078 .      S
C591  H658  1.081 .      S
C592  H659  1.080 .      S
C593  H660  1.079 .      S
H651  C586  1.106 1_556  S
H653  C586  1.100 1_556  S
C595  N199  1.455 .      S
C595  H661  1.095 1_545  S
C595  H662  1.105 1_545  S
C595  H663  1.106 .      S
N199  C596  1.457 .      S
N199  H664  1.034 .      S
C596  C597  1.467 .      S
C596  H665  1.102 .      S
C596  H666  1.098 .      S
C599  H667  1.074 .      S
C600  H668  1.065 .      S
C601  H669  1.074 .      S
C602  H670  1.063 .      S
H661  C595  1.095 1_565  S
H662  C595  1.105 1_565  S
C604  N202  1.443 .      S
C604  H671  1.101 .      S
C604  H672  1.103 .      S
C604  H673  1.108 .      S
N202  C605  1.433 .      S
N202  H674  1.036 .      S
C605  C606  1.469 .      S
C605  H675  1.087 .      S
C605  H676  1.075 .      S
C608  H677  1.067 .      S
C609  H678  1.081 .      S
C610  H679  1.081 .      S
C611  H680  1.067 .      S
C613  N205  1.428 .      S
C613  H681  1.092 .      S
C613  H682  1.102 .      S
C613  H683  1.084 .      S
N205  C614  1.431 .      S
N205  H684  1.035 .      S
C614  C615  1.455 .      S
C614  H685  1.108 .      S
C614  H686  1.094 .      S
C617  H687  1.080 .      S
C618  H688  1.081 1_545  S
C619  H689  1.081 1_545  S
C620  H690  1.074 .      S
H688  C618  1.081 1_565  S
H689  C619  1.081 1_565  S
C622  N208  1.458 .      S
C622  H691  1.104 .      S
C622  H692  1.108 .      S
C622  H693  1.108 .      S
N208  C623  1.441 .      S
N208  H694  1.042 .      S
C623  C624  1.484 .      S
C623  H695  1.092 .      S
C623  H696  1.102 .      S
C626  H697  1.057 .      S
C627  H698  1.081 .      S
C628  H699  1.081 1_545  S
C629  H700  1.076 .      S
H699  C628  1.081 1_565  S
C631  N211  1.445 .      S
C631  H701  1.107 .      S
C631  H702  1.102 .      S
C631  H703  1.106 .      S
N211  C632  1.451 .      S
N211  H704  1.039 .      S
C632  C633  1.478 .      S
C632  H705  1.076 .      S
C632  H706  1.106 .      S
C635  H707  1.064 .      S
C636  H708  1.081 .      S
C637  H709  1.079 .      S
C638  H710  1.074 .      S
C640  N214  1.450 .      S
C640  H711  1.095 .      S
C640  H712  1.094 .      S
C640  H713  1.104 .      S
N214  C641  1.444 .      S
N214  H714  1.038 .      S
C641  C642  1.464 .      S
C641  H715  1.096 .      S
C641  H716  1.101 .      S
C644  H717  1.068 .      S
C645  H718  1.080 .      S
C646  H719  1.078 .      S
C647  H720  1.067 .      S
C649  N217  1.450 .      S
C649  H721  1.104 .      S
C649  H722  1.105 .      S
C649  H723  1.107 .      S
N217  C650  1.457 .      S
N217  H724  1.040 .      S
C650  C651  1.462 .      S
C650  H725  1.085 .      S
C650  H726  1.081 .      S
C653  H727  1.074 .      S
C654  H728  1.081 .      S
C655  H729  1.081 .      S
C656  H730  1.076 .      S
C658  N220  1.451 .      S
C658  H731  1.081 .      S
C658  H732  1.088 .      S
C658  H733  1.102 .      S
N220  C659  1.441 .      S
N220  H734  1.038 .      S
C659  C660  1.470 .      S
C659  H735  1.098 .      S
C659  H736  1.091 .      S
C662  H737  1.059 .      S
C663  H738  1.081 .      S
C664  H739  1.081 .      S
C665  H740  1.058 .      S
C667  N223  1.450 .      S
C667  H741  1.104 1_545  S
C667  H742  1.105 .      S
C667  H743  1.101 1_545  S
N223  C668  1.449 .      S
N223  H744  1.042 .      S
C668  C669  1.478 .      S
C668  H745  1.081 .      S
C668  H746  1.100 .      S
N224  Zn39  2.076 1_556  S
C671  H747  1.071 1_556  S
C672  H748  1.078 1_556  S
C673  H749  1.081 .      S
C674  H750  1.075 .      S
H741  C667  1.104 1_565  S
H743  C667  1.101 1_565  S
H747  C671  1.071 1_554  S
H748  C672  1.078 1_554  S
C676  N226  1.449 .      S
C676  H751  1.105 .      S
C676  H752  1.109 .      S
C676  H753  1.101 .      S
N226  C677  1.446 .      S
N226  H754  1.033 .      S
C677  C678  1.493 1_655  S
C677  H755  1.096 1_655  S
C677  H756  1.107 1_655  S
C678  C677  1.493 1_455  S
C680  H757  1.069 .      S
C681  H758  1.081 1_545  S
C682  H759  1.075 .      S
C683  H760  1.058 1_455  S
N228  Zn21  2.143 1_545  S
H755  C677  1.096 1_455  S
H756  C677  1.107 1_455  S
H758  C681  1.081 1_565  S
H760  C683  1.058 1_655  S
C685  N229  1.455 1_554  S
C685  H761  1.109 1_554  S
C685  H762  1.099 .      S
C685  H763  1.102 .      S
N229  C685  1.455 1_556  S
N229  C686  1.450 1_556  S
N229  H764  1.041 .      S
C686  N229  1.450 1_554  S
C686  C687  1.490 .      S
C686  H765  1.085 .      S
C686  H766  1.108 .      S
N230  Zn50  2.023 1_556  S
C689  H767  1.075 .      S
C690  H768  1.063 .      S
C691  H769  1.074 .      S
C692  H770  1.066 .      S
N231  Zn39  2.065 1_556  S
H761  C685  1.109 1_556  S
C694  N232  1.426 .      S
C694  H771  1.101 .      S
C694  H772  1.091 .      S
C694  H773  1.099 .      S
N232  C695  1.447 .      S
N232  H774  1.040 .      S
C695  C696  1.444 .      S
C695  H775  1.099 .      S
C695  H776  1.107 .      S
C698  H777  1.049 .      S
C699  H778  1.080 1_655  S
C700  H779  1.077 .      S
C701  H780  1.061 .      S
H778  C699  1.080 1_455  S
C703  N235  1.450 .      S
C703  H781  1.109 .      S
C703  H782  1.098 .      S
C703  H783  1.103 .      S
N235  C704  1.435 .      S
N235  H784  1.044 .      S
C704  C705  1.467 1_545  S
C704  H785  1.092 .      S
C704  H786  1.097 .      S
C705  C704  1.467 1_565  S
C707  H787  1.053 .      S
C708  H788  1.081 .      S
C709  H789  1.067 .      S
C710  H790  1.060 .      S
C712  N238  1.446 .      S
C712  H791  1.104 .      S
C712  H792  1.107 .      S
C712  H793  1.107 .      S
N238  C713  1.450 .      S
N238  H794  1.042 .      S
C713  C714  1.463 .      S
C713  H795  1.094 .      S
C713  H796  1.101 .      S
C716  H797  1.057 .      S
C717  H798  1.078 .      S
C718  H799  1.081 .      S
C719  H800  1.055 .      S
C721  N241  1.443 .      S
C721  H801  1.107 .      S
C721  H802  1.101 1_545  S
C721  H803  1.096 1_545  S
N241  C722  1.447 1_545  S
N241  H804  1.042 .      S
C722  N241  1.447 1_565  S
C722  C723  1.465 .      S
C722  H805  1.084 .      S
C722  H806  1.107 .      S
C725  H807  1.076 .      S
C726  H808  1.081 .      S
C727  H809  1.079 .      S
C728  H810  1.062 .      S
N243  Zn21  2.134 1_554  S
H802  C721  1.101 1_565  S
H803  C721  1.096 1_565  S
C730  N244  1.434 .      S
C730  H811  1.109 .      S
C730  H812  1.093 .      S
C730  H813  1.100 .      S
N244  C731  1.443 .      S
N244  H814  1.040 .      S
C731  C732  1.482 .      S
C731  H815  1.096 .      S
C731  H816  1.102 .      S
C734  H817  1.075 .      S
C735  H818  1.080 .      S
C736  H819  1.071 .      S
C737  H820  1.069 .      S
C739  N247  1.451 .      S
C739  H821  1.105 .      S
C739  H822  1.100 .      S
C739  H823  1.104 .      S
N247  C740  1.452 1_545  S
N247  H824  1.040 1_545  S
C740  N247  1.452 1_565  S
C740  C741  1.485 .      S
C740  H825  1.092 .      S
C740  H826  1.095 1_565  S
N248  Zn41  2.138 1_565  S
C743  H827  1.062 .      S
C744  H828  1.077 .      S
C745  H829  1.074 .      S
C746  H830  1.073 .      S
H824  N247  1.040 1_565  S
H826  C740  1.095 1_545  S
C748  N250  1.437 .      S
C748  H831  1.105 .      S
C748  H832  1.101 .      S
C748  H833  1.100 .      S
N250  C749  1.434 .      S
N250  H834  1.040 .      S
C749  C750  1.436 .      S
C749  H835  1.105 .      S
C749  H836  1.099 .      S
C752  H837  1.058 .      S
C753  H838  1.076 .      S
C754  H839  1.075 .      S
C755  H840  1.071 .      S
C757  N253  1.454 .      S
C757  H841  1.105 .      S
C757  H842  1.103 .      S
C757  H843  1.101 .      S
N253  C758  1.451 .      S
N253  H844  1.039 .      S
C758  C759  1.479 .      S
C758  H845  1.083 .      S
C758  H846  1.102 .      S
C761  H847  1.073 .      S
C762  H848  1.081 1_565  S
C763  H849  1.081 .      S
C764  H850  1.079 .      S
H848  C762  1.081 1_545  S
C766  N256  1.441 .      S
C766  H851  1.109 .      S
C766  H852  1.106 .      S
C766  H853  1.103 .      S
N256  C767  1.452 .      S
N256  H854  1.039 .      S
C767  C768  1.481 .      S
C767  H855  1.103 .      S
C767  H856  1.107 .      S
N257  Zn42  2.006 1_545  S
C770  H857  1.075 .      S
C771  H858  1.075 .      S
C772  H859  1.081 .      S
C773  H860  1.062 .      S
C775  N259  1.445 .      S
C775  H861  1.106 .      S
C775  H862  1.103 .      S
C775  H863  1.100 .      S
N259  C776  1.451 .      S
N259  H864  1.044 .      S
C776  C777  1.494 .      S
C776  H865  1.104 .      S
C776  H866  1.101 .      S
C779  H867  1.058 .      S
C780  H868  1.080 .      S
C781  H869  1.073 .      S
C782  H870  1.057 .      S
C784  N262  1.446 .      S
C784  H871  1.091 .      S
C784  H872  1.107 .      S
C784  H873  1.102 .      S
N262  C785  1.452 .      S
N262  H874  1.040 .      S
C785  C786  1.474 .      S
C785  H875  1.102 .      S
C785  H876  1.108 .      S
C788  H877  1.059 .      S
C789  H878  1.076 .      S
C790  H879  1.078 1_655  S
C791  H880  1.064 .      S
H879  C790  1.078 1_455  S
C793  N265  1.442 .      S
C793  H881  1.101 .      S
C793  H882  1.102 .      S
C793  H883  1.109 .      S
N265  C794  1.443 .      S
N265  H884  1.043 .      S
C794  C795  1.482 .      S
C794  H885  1.083 .      S
C794  H886  1.095 .      S
C797  H887  1.046 .      S
C798  H888  1.073 .      S
C799  H889  1.071 .      S
C800  H890  1.074 .      S
C802  N268  1.453 .      S
C802  H891  1.101 .      S
C802  H892  1.108 .      S
C802  H893  1.088 .      S
N268  C803  1.447 .      S
N268  H894  1.042 .      S
C803  C804  1.464 .      S
C803  H895  1.085 .      S
C803  H896  1.101 .      S
C806  H897  1.052 .      S
C807  H898  1.081 .      S
C808  H899  1.081 .      S
C809  H900  1.056 .      S
C811  N271  1.446 .      S
C811  H901  1.103 .      S
C811  H902  1.107 .      S
C811  H903  1.106 .      S
N271  C812  1.450 .      S
N271  H904  1.043 .      S
C812  C813  1.477 .      S
C812  H905  1.106 .      S
C812  H906  1.104 .      S
C815  H907  1.066 .      S
C816  H908  1.080 .      S
C817  H909  1.081 .      S
C818  H910  1.077 .      S
C820  N274  1.441 .      S
C820  H911  1.104 .      S
C820  H912  1.103 .      S
C820  H913  1.107 .      S
N274  C821  1.433 .      S
N274  H914  1.022 .      S
C821  C822  1.461 .      S
C821  H915  1.102 .      S
C821  H916  1.084 .      S
C824  H917  1.069 .      S
C825  H918  1.081 1_655  S
C826  H919  1.081 1_655  S
C827  H920  1.066 .      S
H918  C825  1.081 1_455  S
H919  C826  1.081 1_455  S
C829  N277  1.456 .      S
C829  H921  1.106 .      S
C829  H922  1.108 .      S
C829  H923  1.107 .      S
N277  C830  1.443 .      S
N277  H924  1.037 .      S
C830  C831  1.488 .      S
C830  H925  1.098 .      S
C830  H926  1.105 .      S
C833  H927  1.072 .      S
C834  H928  1.071 .      S
C835  H929  1.080 .      S
C836  H930  1.073 .      S
C838  N280  1.444 .      S
C838  H931  1.106 .      S
C838  H932  1.104 .      S
C838  H933  1.103 .      S
N280  C839  1.444 .      S
N280  H934  1.044 .      S
C839  C840  1.479 .      S
C839  H935  1.098 .      S
C839  H936  1.101 .      S
C842  H937  1.068 1_655  S
C843  H938  1.080 .      S
C844  H939  1.076 1_655  S
C845  H940  1.070 .      S
H937  C842  1.068 1_455  S
H939  C844  1.076 1_455  S
C847  N283  1.441 .      S
C847  H941  1.081 1_655  S
C847  H942  1.106 .      S
C847  H943  1.100 .      S
N283  C848  1.443 .      S
N283  H944  1.037 .      S
C848  C849  1.470 .      S
C848  H945  1.106 .      S
C848  H946  1.104 .      S
C851  H947  1.040 .      S
C852  H948  1.076 .      S
C853  H949  1.064 .      S
C854  H950  1.055 .      S
H941  C847  1.081 1_455  S
C856  N286  1.453 .      S
C856  H951  1.103 .      S
C856  H952  1.106 .      S
C856  H953  1.105 .      S
N286  C857  1.446 .      S
N286  H954  1.036 .      S
C857  C858  1.479 .      S
C857  H955  1.106 .      S
C857  H956  1.107 .      S
C860  H957  1.080 .      S
C861  H958  1.073 .      S
C862  H959  1.081 .      S
C863  H960  1.070 .      S
C865  N289  1.449 .      S
C865  H961  1.090 .      S
C865  H962  1.106 .      S
C865  H963  1.109 .      S
N289  C866  1.441 .      S
N289  H964  1.042 .      S
C866  C867  1.477 .      S
C866  H965  1.102 .      S
C866  H966  1.106 .      S
C869  H967  1.069 .      S
C870  H968  1.079 .      S
C871  H969  1.070 .      S
C872  H970  1.078 .      S
C874  N292  1.450 .      S
C874  H971  1.104 1_655  S
C874  H972  1.104 .      S
C874  H973  1.108 .      S
N292  C875  1.451 .      S
N292  H974  1.042 .      S
C875  C876  1.487 .      S
C875  H975  1.108 .      S
C875  H976  1.103 .      S
C878  H977  1.064 .      S
C879  H978  1.073 .      S
C880  H979  1.076 .      S
C881  H980  1.063 .      S
H971  C874  1.104 1_455  S
C883  N295  1.457 .      S
C883  H981  1.108 .      S
C883  H982  1.107 .      S
C883  H983  1.090 .      S
N295  C884  1.459 .      S
N295  H984  1.023 .      S
C884  C885  1.431 .      S
C884  H985  1.099 .      S
C884  H986  1.088 .      S
C887  H987  1.073 .      S
C888  H988  1.063 .      S
C889  H989  1.081 .      S
C890  H990  1.059 .      S
C892  N298  1.448 .      S
C892  H991  1.106 .      S
C892  H992  1.098 .      S
C892  H993  1.103 1_565  S
N298  C893  1.444 1_565  S
N298  H994  1.035 .      S
C893  N298  1.444 1_545  S
C893  C894  1.486 .      S
C893  H995  1.106 .      S
C893  H996  1.107 1_545  S
C896  H997  1.054 .      S
C897  H998  1.072 .      S
C898  H999  1.077 .      S
C899  H1000 1.070 .      S
H993  C892  1.103 1_545  S
H996  C893  1.107 1_565  S
C901  N301  1.456 .      S
C901  H1001 1.092 .      S
C901  H1002 1.107 .      S
C901  H1003 1.102 .      S
N301  C902  1.440 .      S
N301  H1004 1.042 .      S
C902  C903  1.470 .      S
C902  H1005 1.092 .      S
C902  H1006 1.094 .      S
N302  Zn50  2.062 1_556  S
C905  H1007 1.067 1_556  S
C906  H1008 1.070 .      S
C907  H1009 1.081 .      S
C908  H1010 1.047 .      S
H1007 C905  1.067 1_554  S
C910  N304  1.455 .      S
C910  H1011 1.104 .      S
C910  H1012 1.105 1_565  S
C910  H1013 1.109 .      S
N304  C911  1.459 .      S
N304  H1014 1.040 .      S
C911  C912  1.500 .      S
C911  H1015 1.099 .      S
C911  H1016 1.093 .      S
C914  H1017 1.051 .      S
C915  H1018 1.076 .      S
C916  H1019 1.073 .      S
C917  H1020 1.072 .      S
H1012 C910  1.105 1_545  S
C919  N307  1.447 .      S
C919  H1021 1.095 .      S
C919  H1022 1.097 .      S
C919  H1023 1.100 .      S
N307  C920  1.440 .      S
N307  H1024 1.037 .      S
C920  C921  1.453 .      S
C920  H1025 1.105 .      S
C920  H1026 1.105 .      S
C923  H1027 1.064 .      S
C924  H1028 1.075 .      S
C925  H1029 1.071 .      S
C926  H1030 1.075 .      S
C928  N310  1.445 .      S
C928  H1031 1.096 .      S
C928  H1032 1.101 .      S
C928  H1033 1.105 .      S
N310  C929  1.454 .      S
N310  H1034 1.044 .      S
C929  C930  1.462 .      S
C929  H1035 1.100 .      S
C929  H1036 1.098 .      S
C932  H1037 1.080 .      S
C933  H1038 1.081 .      S
C934  H1039 1.081 .      S
C935  H1040 1.079 .      S
C937  N313  1.454 .      S
C937  H1041 1.107 .      S
C937  H1042 1.105 .      S
C937  H1043 1.103 .      S
N313  C938  1.453 .      S
N313  H1044 1.039 .      S
C938  C939  1.467 .      S
C938  H1045 1.104 .      S
C938  H1046 1.107 .      S
C941  H1047 1.061 .      S
C942  H1048 1.081 .      S
C943  H1049 1.076 .      S
C944  H1050 1.075 .      S
C946  N316  1.447 .      S
C946  H1051 1.109 .      S
C946  H1052 1.107 .      S
C946  H1053 1.107 .      S
N316  C947  1.451 .      S
N316  H1054 1.041 .      S
C947  C948  1.480 .      S
C947  H1055 1.108 .      S
C947  H1056 1.109 .      S
C950  H1057 1.075 .      S
C951  H1058 1.072 .      S
C952  H1059 1.043 .      S
C953  H1060 1.069 .      S
C955  N319  1.452 .      S
C955  H1061 1.104 .      S
C955  H1062 1.104 .      S
C955  H1063 1.097 .      S
N319  C956  1.450 .      S
N319  H1064 1.042 .      S
C956  C957  1.483 .      S
C956  H1065 1.106 .      S
C956  H1066 1.080 .      S
C959  H1067 1.066 .      S
C960  H1068 1.080 .      S
C961  H1069 1.081 .      S
C962  H1070 1.044 .      S
C964  N322  1.446 .      S
C964  H1071 1.105 .      S
C964  H1072 1.093 .      S
C964  H1073 1.099 .      S
N322  C965  1.458 .      S
N322  H1074 1.042 .      S
C965  C966  1.474 .      S
C965  H1075 1.102 .      S
C965  H1076 1.100 .      S
C968  H1077 1.071 .      S
C969  H1078 1.072 .      S
C970  H1079 1.074 1_545  S
C971  H1080 1.057 .      S
H1079 C970  1.074 1_565  S
C973  N325  1.447 .      S
C973  H1081 1.103 .      S
C973  H1082 1.103 .      S
C973  H1083 1.105 .      S
N325  C974  1.441 .      S
N325  H1084 1.029 .      S
C974  C975  1.471 .      S
C974  H1085 1.091 .      S
C974  H1086 1.099 .      S
C977  H1087 1.057 .      S
C978  H1088 1.080 1_655  S
C979  H1089 1.073 1_545  S
C980  H1090 1.061 .      S
N327  Zn55  2.010 1_545  S
H1088 C978  1.080 1_455  S
H1089 C979  1.073 1_565  S
C982  N328  1.452 .      S
C982  H1091 1.101 .      S
C982  H1092 1.102 .      S
C982  H1093 1.110 .      S
N328  C983  1.448 .      S
N328  H1094 1.041 .      S
C983  C984  1.486 .      S
C983  H1095 1.099 .      S
C983  H1096 1.107 .      S
C986  H1097 1.072 1_565  S
C987  H1098 1.077 .      S
C988  H1099 1.081 .      S
C989  H1100 1.078 .      S
H1097 C986  1.072 1_545  S
C991  N331  1.444 .      S
C991  H1101 1.100 .      S
C991  H1102 1.104 .      S
C991  H1103 1.099 .      S
N331  C992  1.442 .      S
N331  H1104 1.044 .      S
C992  C993  1.475 .      S
C992  H1105 1.098 .      S
C992  H1106 1.108 .      S
C995  H1107 1.065 .      S
C996  H1108 1.081 .      S
C997  H1109 1.075 .      S
C998  H1110 1.077 .      S
C1000 N334  1.443 .      S
C1000 H1111 1.093 .      S
C1000 H1112 1.101 .      S
C1000 H1113 1.104 .      S
N334  C1001 1.436 .      S
N334  H1114 1.038 .      S
C1001 C1002 1.478 .      S
C1001 H1115 1.103 .      S
C1001 H1116 1.095 .      S
C1004 H1117 1.065 .      S
C1005 H1118 1.073 .      S
C1006 H1119 1.069 .      S
C1007 H1120 1.041 .      S
C1009 N337  1.456 .      S
C1009 H1121 1.106 .      S
C1009 H1122 1.102 .      S
C1009 H1123 1.101 .      S
N337  C1010 1.461 .      S
N337  H1124 1.035 1_554  S
C1010 C1011 1.464 .      S
C1010 H1125 1.078 .      S
C1010 H1126 1.077 .      S
C1013 H1127 1.079 .      S
C1014 H1128 1.075 .      S
C1015 H1129 1.080 .      S
C1016 H1130 1.068 .      S
N339  Zn19  2.096 1_554  S
H1124 N337  1.035 1_556  S
C1018 N340  1.437 .      S
C1018 H1131 1.098 .      S
C1018 H1132 1.083 .      S
C1018 H1133 1.103 .      S
N340  C1019 1.443 .      S
N340  H1134 1.036 .      S
C1019 C1020 1.460 .      S
C1019 H1135 1.107 .      S
C1019 H1136 1.093 .      S
C1022 H1137 1.072 .      S
C1023 H1138 1.077 .      S
C1024 H1139 1.075 1_655  S
C1025 H1140 1.072 .      S
H1139 C1024 1.075 1_455  S
C1027 N343  1.447 .      S
C1027 H1141 1.103 1_655  S
C1027 H1142 1.098 .      S
C1027 H1143 1.109 .      S
N343  C1028 1.448 .      S
N343  H1144 1.044 .      S
C1028 C1029 1.478 .      S
C1028 H1145 1.097 .      S
C1028 H1146 1.107 .      S
C1031 H1147 1.066 .      S
C1032 H1148 1.080 .      S
C1033 H1149 1.081 .      S
C1034 H1150 1.080 .      S
H1141 C1027 1.103 1_455  S
C1036 N346  1.449 .      S
C1036 H1151 1.109 .      S
C1036 H1152 1.096 .      S
C1036 H1153 1.106 .      S
N346  C1037 1.463 .      S
N346  H1154 1.028 .      S
C1037 C1038 1.484 .      S
C1037 H1155 1.107 .      S
C1037 H1156 1.102 .      S
C1040 H1157 1.061 .      S
C1041 H1158 1.079 .      S
C1042 H1159 1.081 .      S
C1043 H1160 1.074 .      S
C1045 N349  1.441 .      S
C1045 H1161 1.106 .      S
C1045 H1162 1.095 .      S
C1045 H1163 1.105 .      S
N349  C1046 1.449 .      S
N349  H1164 1.040 .      S
C1046 C1047 1.462 .      S
C1046 H1165 1.099 .      S
C1046 H1166 1.100 .      S
C1049 H1167 1.075 .      S
C1050 H1168 1.078 .      S
C1051 H1169 1.069 .      S
C1052 H1170 1.061 .      S
C1054 N352  1.447 .      S
C1054 H1171 1.108 .      S
C1054 H1172 1.098 .      S
C1054 H1173 1.107 .      S
N352  C1055 1.451 .      S
N352  H1174 1.034 .      S
C1055 C1056 1.450 .      S
C1055 H1175 1.105 .      S
C1055 H1176 1.092 .      S
C1058 H1177 1.061 .      S
C1059 H1178 1.081 .      S
C1060 H1179 1.080 .      S
C1061 H1180 1.078 .      S
C1063 N355  1.455 .      S
C1063 H1181 1.103 .      S
C1063 H1182 1.097 .      S
C1063 H1183 1.104 .      S
N355  C1064 1.446 .      S
N355  H1184 1.039 .      S
C1064 C1065 1.480 .      S
C1064 H1185 1.092 .      S
C1064 H1186 1.101 .      S
C1067 H1187 1.052 .      S
C1068 H1188 1.081 .      S
C1069 H1189 1.081 .      S
C1070 H1190 1.052 .      S
C1072 N358  1.455 .      S
C1072 H1191 1.107 .      S
C1072 H1192 1.106 .      S
C1072 H1193 1.105 .      S
N358  C1073 1.435 .      S
N358  H1194 1.030 .      S
C1073 C1074 1.487 .      S
C1073 H1195 1.105 .      S
C1073 H1196 1.105 .      S
C1076 H1197 1.079 .      S
C1077 H1198 1.077 .      S
C1078 H1199 1.075 .      S
C1079 H1200 1.049 .      S
C1081 N361  1.445 .      S
C1081 H1201 1.102 .      S
C1081 H1202 1.107 .      S
C1081 H1203 1.104 .      S
N361  C1082 1.438 .      S
N361  H1204 1.029 .      S
C1082 C1083 1.462 .      S
C1082 H1205 1.096 .      S
C1082 H1206 1.100 .      S
C1085 H1207 1.066 .      S
C1086 H1208 1.072 .      S
C1087 H1209 1.073 .      S
C1088 H1210 1.074 .      S
C1090 N364  1.447 .      S
C1090 H1211 1.107 .      S
C1090 H1212 1.093 .      S
C1090 H1213 1.108 .      S
N364  C1091 1.447 .      S
N364  H1214 1.035 .      S
C1091 C1092 1.487 .      S
C1091 H1215 1.089 .      S
C1091 H1216 1.106 .      S
C1094 H1217 1.072 .      S
C1095 H1218 1.080 .      S
C1096 H1219 1.081 .      S
C1097 H1220 1.079 .      S
C1099 N367  1.447 1_565  S
C1099 H1221 1.109 .      S
C1099 H1222 1.092 1_565  S
C1099 H1223 1.103 .      S
N367  C1099 1.447 1_545  S
N367  C1100 1.453 .      S
N367  H1224 1.036 .      S
C1100 C1101 1.466 .      S
C1100 H1225 1.107 .      S
C1100 H1226 1.092 .      S
C1103 H1227 1.079 .      S
C1104 H1228 1.065 .      S
C1105 H1229 1.081 .      S
C1106 H1230 1.059 .      S
H1222 C1099 1.092 1_545  S
C1108 N370  1.450 .      S
C1108 H1231 1.110 .      S
C1108 H1232 1.096 .      S
C1108 H1233 1.100 .      S
N370  C1109 1.441 .      S
N370  H1234 1.038 .      S
C1109 C1110 1.464 .      S
C1109 H1235 1.108 .      S
C1109 H1236 1.100 .      S
C1112 H1237 1.052 .      S
C1113 H1238 1.057 .      S
C1114 H1239 1.080 .      S
C1115 H1240 1.061 .      S
C1117 N373  1.451 .      S
C1117 H1241 1.099 .      S
C1117 H1242 1.105 .      S
C1117 H1243 1.107 .      S
N373  C1118 1.452 .      S
N373  H1244 1.044 .      S
C1118 C1119 1.493 .      S
C1118 H1245 1.104 .      S
C1118 H1246 1.099 .      S
C1121 H1247 1.078 .      S
C1122 H1248 1.081 .      S
C1123 H1249 1.080 .      S
C1124 H1250 1.070 .      S
C1126 N376  1.453 .      S
C1126 H1251 1.103 .      S
C1126 H1252 1.107 .      S
C1126 H1253 1.109 .      S
N376  C1127 1.442 .      S
N376  H1254 1.035 .      S
C1127 C1128 1.489 .      S
C1127 H1255 1.099 .      S
C1127 H1256 1.108 .      S
C1130 H1257 1.068 .      S
C1131 H1258 1.072 .      S
C1132 H1259 1.079 .      S
C1133 H1260 1.066 .      S
C1135 N379  1.447 1_565  S
C1135 H1261 1.083 .      S
C1135 H1262 1.100 .      S
C1135 H1263 1.109 .      S
N379  C1135 1.447 1_545  S
N379  C1136 1.445 .      S
N379  H1264 1.041 .      S
C1136 C1137 1.471 .      S
C1136 H1265 1.094 .      S
C1136 H1266 1.106 .      S
C1139 H1267 1.071 .      S
C1140 H1268 1.080 .      S
C1141 H1269 1.078 .      S
C1142 H1270 1.080 .      S
C1144 N382  1.450 .      S
C1144 H1271 1.104 .      S
C1144 H1272 1.102 .      S
C1144 H1273 1.108 .      S
N382  C1145 1.453 .      S
N382  H1274 1.040 .      S
C1145 C1146 1.489 .      S
C1145 H1275 1.106 .      S
C1145 H1276 1.099 1_565  S
C1148 H1277 1.074 .      S
C1149 H1278 1.074 .      S
C1150 H1279 1.064 .      S
C1151 H1280 1.072 1_565  S
N384  Zn61  2.141 1_565  S
H1276 C1145 1.099 1_545  S
H1280 C1151 1.072 1_545  S
C1153 N385  1.447 .      S
C1153 H1281 1.093 .      S
C1153 H1282 1.107 .      S
C1153 H1283 1.108 .      S
N385  C1154 1.435 .      S
N385  H1284 1.035 .      S
C1154 C1155 1.478 .      S
C1154 H1285 1.106 .      S
C1154 H1286 1.104 .      S
C1157 H1287 1.075 .      S
C1158 H1288 1.079 .      S
C1159 H1289 1.075 .      S
C1160 H1290 1.080 .      S
C1162 N388  1.443 .      S
C1162 H1291 1.107 .      S
C1162 H1292 1.102 .      S
C1162 H1293 1.106 .      S
N388  C1163 1.442 .      S
N388  H1294 1.037 .      S
C1163 C1164 1.475 1_565  S
C1163 H1295 1.109 .      S
C1163 H1296 1.105 .      S
C1164 C1163 1.475 1_545  S
C1166 H1297 1.050 .      S
C1167 H1298 1.069 .      S
C1168 H1299 1.076 .      S
C1169 H1300 1.070 .      S
C1171 N391  1.435 .      S
C1171 H1301 1.107 .      S
C1171 H1302 1.102 .      S
C1171 H1303 1.104 1_655  S
N391  C1172 1.445 1_665  S
N391  H1304 1.044 1_655  S
C1172 N391  1.445 1_445  S
C1172 C1173 1.460 .      S
C1172 H1305 1.089 .      S
C1172 H1306 1.103 .      S
N392  Zn51  2.041 1_455  S
C1175 H1307 1.071 1_455  S
C1176 H1308 1.079 .      S
C1177 H1309 1.079 .      S
C1178 H1310 1.058 .      S
H1303 C1171 1.104 1_455  S
H1304 N391  1.044 1_455  S
H1307 C1175 1.071 1_655  S
C1180 N394  1.451 .      S
C1180 H1311 1.107 .      S
C1180 H1312 1.106 1_455  S
C1180 H1313 1.101 .      S
N394  C1181 1.449 .      S
N394  H1314 1.041 .      S
C1181 C1182 1.473 .      S
C1181 H1315 1.101 .      S
C1181 H1316 1.098 .      S
C1184 H1317 1.075 .      S
C1185 H1318 1.081 .      S
C1186 H1319 1.081 .      S
C1187 H1320 1.072 .      S
H1312 C1180 1.106 1_655  S
C1189 N397  1.442 .      S
C1189 H1321 1.105 .      S
C1189 H1322 1.106 .      S
C1189 H1323 1.104 .      S
N397  C1190 1.442 .      S
N397  H1324 1.039 .      S
C1190 C1191 1.464 .      S
C1190 H1325 1.090 .      S
C1190 H1326 1.104 .      S
C1193 H1327 1.067 .      S
C1194 H1328 1.061 .      S
C1195 H1329 1.080 .      S
C1196 H1330 1.072 .      S
C1198 N400  1.437 .      S
C1198 H1331 1.093 .      S
C1198 H1332 1.086 .      S
C1198 H1333 1.106 .      S
N400  C1199 1.441 1_655  S
N400  H1334 1.039 .      S
C1199 N400  1.441 1_455  S
C1199 C1200 1.459 .      S
C1199 H1335 1.096 .      S
C1199 H1336 1.101 1_455  S
N401  Zn69  2.118 1_445  S
C1202 H1337 1.079 .      S
C1203 H1338 1.081 .      S
C1204 H1339 1.080 .      S
C1205 H1340 1.066 .      S
H1336 C1199 1.101 1_655  S
C1207 N403  1.444 .      S
C1207 H1341 1.109 .      S
C1207 H1342 1.102 .      S
C1207 H1343 1.107 .      S
N403  C1208 1.454 .      S
N403  H1344 1.043 .      S
C1208 C1209 1.477 .      S
C1208 H1345 1.104 .      S
C1208 H1346 1.106 .      S
C1211 H1347 1.064 .      S
C1212 H1348 1.080 .      S
C1213 H1349 1.074 .      S
C1214 H1350 1.059 .      S
C1216 N406  1.441 .      S
C1216 H1351 1.099 .      S
C1216 H1352 1.102 .      S
C1216 H1353 1.107 .      S
N406  C1217 1.443 .      S
N406  H1354 1.026 .      S
C1217 C1218 1.473 1_545  S
C1217 H1355 1.106 .      S
C1217 H1356 1.089 .      S
C1218 C1217 1.473 1_565  S
C1220 H1357 1.049 .      S
C1221 H1358 1.067 .      S
C1222 H1359 1.079 .      S
C1223 H1360 1.054 .      S
C1225 N409  1.425 .      S
C1225 H1361 1.102 .      S
C1225 H1362 1.107 .      S
C1225 H1363 1.108 .      S
N409  C1226 1.428 .      S
N409  H1364 1.029 .      S
C1226 C1227 1.476 .      S
C1226 H1365 1.104 .      S
C1226 H1366 1.098 .      S
C1229 H1367 1.068 .      S
C1230 H1368 1.081 .      S
C1231 H1369 1.081 .      S
C1232 H1370 1.066 .      S
C1234 N412  1.453 1_545  S
C1234 H1371 1.104 .      S
C1234 H1372 1.107 .      S
C1234 H1373 1.093 .      S
N412  C1234 1.453 1_565  S
N412  C1235 1.436 .      S
N412  H1374 1.030 .      S
C1235 C1236 1.490 .      S
C1235 H1375 1.091 .      S
C1235 H1376 1.103 .      S
C1238 H1377 1.071 .      S
C1239 H1378 1.081 .      S
C1240 H1379 1.081 .      S
C1241 H1380 1.067 .      S
C1243 N415  1.451 .      S
C1243 H1381 1.106 .      S
C1243 H1382 1.110 .      S
C1243 H1383 1.106 .      S
N415  C1244 1.448 .      S
N415  H1384 1.042 .      S
C1244 C1245 1.488 1_565  S
C1244 H1385 1.109 .      S
C1244 H1386 1.104 .      S
C1245 C1244 1.488 1_545  S
C1247 H1387 1.063 .      S
C1248 H1388 1.081 .      S
C1249 H1389 1.072 .      S
C1250 H1390 1.059 .      S
N417  Zn69  2.171 1_545  S
C1252 N418  1.444 1_655  S
C1252 H1391 1.089 .      S
C1252 H1392 1.102 1_655  S
C1252 H1393 1.095 .      S
N418  C1252 1.444 1_455  S
N418  C1253 1.445 .      S
N418  H1394 1.039 .      S
C1253 C1254 1.472 .      S
C1253 H1395 1.099 1_455  S
C1253 H1396 1.097 .      S
C1256 H1397 1.081 .      S
C1257 H1398 1.081 .      S
C1258 H1399 1.081 .      S
C1259 H1400 1.078 .      S
N420  Zn16  2.071 1_455  S
H1392 C1252 1.102 1_455  S
H1395 C1253 1.099 1_655  S
C1261 N421  1.456 .      S
C1261 H1401 1.106 .      S
C1261 H1402 1.107 .      S
C1261 H1403 1.104 .      S
N421  C1262 1.452 .      S
N421  H1404 1.036 .      S
C1262 C1263 1.494 .      S
C1262 H1405 1.086 .      S
C1262 H1406 1.109 .      S
C1265 H1407 1.071 .      S
C1266 H1408 1.063 .      S
C1267 H1409 1.073 .      S
C1268 H1410 1.071 .      S
C1270 N424  1.454 .      S
C1270 H1411 1.104 .      S
C1270 H1412 1.107 .      S
C1270 H1413 1.099 .      S
N424  C1271 1.458 .      S
N424  H1414 1.043 .      S
C1271 C1272 1.452 .      S
C1271 H1415 1.078 .      S
C1271 H1416 1.090 .      S
C1274 H1417 1.065 .      S
C1275 H1418 1.078 .      S
C1276 H1419 1.068 .      S
C1277 H1420 1.074 1_565  S
N426  Zn64  2.168 1_565  S
H1420 C1277 1.074 1_545  S
C1279 N427  1.447 1_655  S
C1279 H1421 1.104 .      S
C1279 H1422 1.105 .      S
C1279 H1423 1.094 .      S
N427  C1279 1.447 1_455  S
N427  C1280 1.453 .      S
N427  H1424 1.043 .      S
C1280 C1281 1.485 .      S
C1280 H1425 1.102 1_455  S
C1280 H1426 1.101 .      S
C1283 H1427 1.062 .      S
C1284 H1428 1.076 .      S
C1285 H1429 1.080 .      S
C1286 H1430 1.071 1_455  S
N429  Zn15  2.039 1_455  S
H1425 C1280 1.102 1_655  S
H1430 C1286 1.071 1_655  S
C1288 N430  1.448 .      S
C1288 H1431 1.097 1_565  S
C1288 H1432 1.108 .      S
C1288 H1433 1.108 .      S
N430  C1289 1.442 .      S
N430  H1434 1.038 1_565  S
C1289 C1290 1.471 .      S
C1289 H1435 1.102 1_565  S
C1289 H1436 1.106 .      S
C1292 H1437 1.065 .      S
C1293 H1438 1.081 .      S
C1294 H1439 1.081 .      S
C1295 H1440 1.069 .      S
H1431 C1288 1.097 1_545  S
H1434 N430  1.038 1_545  S
H1435 C1289 1.102 1_545  S
C3    N2    1.384 .      A
C3    N3    1.374 .      A
N2    C4    1.352 .      A
C4    C5    1.364 .      A
C4    C9    1.357 .      A
C5    C6    1.380 .      A
C6    C7    1.380 .      A
C7    C8    1.378 .      A
C8    C9    1.375 .      A
C9    N3    1.345 .      A
C12   N5    1.389 .      A
C12   N6    1.382 .      A
N5    C13   1.329 .      A
C13   C14   1.361 .      A
C13   C18   1.350 .      A
C14   C15   1.361 .      A
C15   C16   1.361 .      A
C16   C17   1.364 .      A
C17   C18   1.369 .      A
C18   N6    1.354 .      A
C21   N8    1.375 1_565  A
C21   N9    1.396 1_565  A
N8    C21   1.375 1_545  A
N8    C22   1.349 .      A
C22   C23   1.374 .      A
C22   C27   1.373 .      A
C23   C24   1.382 .      A
C24   C25   1.386 .      A
C25   C26   1.383 .      A
C26   C27   1.372 .      A
C27   N9    1.357 .      A
N9    C21   1.396 1_545  A
C30   N11   1.393 .      A
C30   N12   1.384 .      A
N11   C31   1.349 .      A
C31   C32   1.364 .      A
C31   C36   1.353 .      A
C32   C33   1.368 .      A
C33   C34   1.378 .      A
C34   C35   1.381 .      A
C35   C36   1.359 .      A
C36   N12   1.336 .      A
C39   N14   1.377 .      A
C39   N15   1.385 1_545  A
N14   C40   1.354 .      A
C40   C41   1.367 1_545  A
C40   C45   1.347 1_545  A
C41   C40   1.367 1_565  A
C41   C42   1.375 1_655  A
C42   C41   1.375 1_455  A
C42   C43   1.379 1_455  A
C43   C42   1.379 1_655  A
C43   C44   1.374 .      A
C44   C45   1.364 .      A
C45   C40   1.347 1_565  A
C45   N15   1.336 .      A
N15   C39   1.385 1_565  A
C48   N17   1.400 .      A
C48   N18   1.391 .      A
N17   C49   1.361 .      A
C49   C50   1.380 .      A
C49   C54   1.358 .      A
C50   C51   1.372 .      A
C51   C52   1.370 .      A
C52   C53   1.370 .      A
C53   C54   1.366 .      A
C54   N18   1.344 .      A
C57   N20   1.379 .      A
C57   N21   1.387 .      A
N20   C58   1.349 .      A
C58   C59   1.373 .      A
C58   C63   1.363 .      A
C59   C60   1.384 .      A
C60   C61   1.389 .      A
C61   C62   1.386 .      A
C62   C63   1.371 .      A
C63   N21   1.348 .      A
C66   N23   1.373 .      A
C66   N24   1.387 .      A
N23   C67   1.335 .      A
C67   C68   1.367 .      A
C67   C72   1.355 .      A
C68   C69   1.376 .      A
C69   C70   1.383 .      A
C70   C71   1.382 .      A
C71   C72   1.366 .      A
C72   N24   1.353 .      A
C75   N26   1.392 .      A
C75   N27   1.386 .      A
N26   C76   1.337 .      A
C76   C77   1.371 .      A
C76   C81   1.364 .      A
C77   C78   1.376 .      A
C78   C79   1.385 .      A
C79   C80   1.390 .      A
C80   C81   1.368 .      A
C81   N27   1.353 .      A
C84   N29   1.381 .      A
C84   N30   1.392 .      A
N29   C85   1.343 .      A
C85   C86   1.374 .      A
C85   C90   1.367 .      A
C86   C87   1.380 .      A
C87   C88   1.376 .      A
C88   C89   1.379 .      A
C89   C90   1.378 .      A
C90   N30   1.362 .      A
C93   N32   1.399 .      A
C93   N33   1.378 .      A
N32   C94   1.346 .      A
C94   C95   1.374 .      A
C94   C99   1.361 .      A
C95   C96   1.380 .      A
C96   C97   1.381 .      A
C97   C98   1.383 .      A
C98   C99   1.360 .      A
C99   N33   1.350 .      A
C102  N35   1.393 .      A
C102  N36   1.395 .      A
N35   C103  1.356 .      A
C103  C104  1.355 .      A
C103  C108  1.355 .      A
C104  C105  1.385 .      A
C105  C106  1.378 .      A
C106  C107  1.377 .      A
C107  C108  1.367 .      A
C108  N36   1.331 .      A
C111  N38   1.387 .      A
C111  N39   1.389 .      A
N38   C112  1.341 .      A
C112  C113  1.358 .      A
C112  C117  1.345 .      A
C113  C114  1.364 1_565  A
C114  C113  1.364 1_545  A
C114  C115  1.371 .      A
C115  C116  1.358 1_545  A
C116  C115  1.358 1_565  A
C116  C117  1.359 .      A
C117  N39   1.335 .      A
C120  N41   1.391 .      A
C120  N42   1.384 .      A
N41   C121  1.348 .      A
C121  C122  1.366 .      A
C121  C126  1.350 .      A
C122  C123  1.375 .      A
C123  C124  1.377 .      A
C124  C125  1.379 .      A
C125  C126  1.376 .      A
C126  N42   1.352 .      A
C129  N44   1.368 .      A
C129  N45   1.375 .      A
N44   C130  1.350 .      A
C130  C131  1.382 .      A
C130  C135  1.356 .      A
C131  C132  1.380 .      A
C132  C133  1.377 .      A
C133  C134  1.377 .      A
C134  C135  1.358 .      A
C135  N45   1.346 .      A
C138  N47   1.391 .      A
C138  N48   1.398 .      A
N47   C139  1.340 .      A
C139  C140  1.371 .      A
C139  C144  1.360 .      A
C140  C141  1.370 .      A
C141  C142  1.372 .      A
C142  C143  1.379 .      A
C143  C144  1.366 .      A
C144  N48   1.347 .      A
C147  N50   1.403 .      A
C147  N51   1.396 .      A
N50   C148  1.348 .      A
C148  C149  1.370 .      A
C148  C153  1.358 .      A
C149  C150  1.370 .      A
C150  C151  1.372 .      A
C151  C152  1.371 .      A
C152  C153  1.361 .      A
C153  N51   1.346 .      A
C156  N53   1.393 .      A
C156  N54   1.398 .      A
N53   C157  1.345 .      A
C157  C158  1.362 .      A
C157  C162  1.366 .      A
C158  C159  1.369 .      A
C159  C160  1.371 .      A
C160  C161  1.373 .      A
C161  C162  1.370 .      A
C162  N54   1.347 .      A
C165  N56   1.398 .      A
C165  N57   1.396 .      A
N56   C166  1.351 .      A
C166  C167  1.374 .      A
C166  C171  1.367 .      A
C167  C168  1.379 .      A
C168  C169  1.383 .      A
C169  C170  1.378 .      A
C170  C171  1.367 .      A
C171  N57   1.344 .      A
C174  N59   1.397 .      A
C174  N60   1.395 .      A
N59   C175  1.350 .      A
C175  C176  1.357 .      A
C175  C180  1.356 .      A
C176  C177  1.368 .      A
C177  C178  1.373 .      A
C178  C179  1.366 .      A
C179  C180  1.362 .      A
C180  N60   1.330 .      A
C183  N62   1.388 .      A
C183  N63   1.398 .      A
N62   C184  1.357 .      A
C184  C185  1.375 .      A
C184  C189  1.361 .      A
C185  C186  1.384 .      A
C186  C187  1.381 .      A
C187  C188  1.378 .      A
C188  C189  1.367 .      A
C189  N63   1.341 .      A
C192  N65   1.391 .      A
C192  N66   1.379 .      A
N65   C193  1.358 .      A
C193  C194  1.376 .      A
C193  C198  1.368 .      A
C194  C195  1.384 .      A
C195  C196  1.384 .      A
C196  C197  1.380 .      A
C197  C198  1.376 .      A
C198  N66   1.347 .      A
C201  N68   1.370 .      A
C201  N69   1.397 .      A
N68   C202  1.335 .      A
C202  C203  1.356 .      A
C202  C207  1.355 .      A
C203  C204  1.365 .      A
C204  C205  1.383 .      A
C205  C206  1.378 .      A
C206  C207  1.362 .      A
C207  N69   1.341 .      A
C210  N71   1.385 .      A
C210  N72   1.376 .      A
N71   C211  1.343 .      A
C211  C212  1.371 .      A
C211  C216  1.363 .      A
C212  C213  1.378 .      A
C213  C214  1.383 1_655  A
C214  C213  1.383 1_455  A
C214  C215  1.382 1_455  A
C215  C214  1.382 1_655  A
C215  C216  1.372 .      A
C216  N72   1.351 .      A
C219  N74   1.406 .      A
C219  N75   1.379 .      A
N74   C220  1.351 .      A
C220  C221  1.360 .      A
C220  C225  1.364 .      A
C221  C222  1.376 .      A
C222  C223  1.380 .      A
C223  C224  1.380 .      A
C224  C225  1.375 .      A
C225  N75   1.341 .      A
C228  N77   1.383 1_455  A
C228  N78   1.390 .      A
N77   C228  1.383 1_655  A
N77   C229  1.332 1_655  A
C229  N77   1.332 1_455  A
C229  C230  1.371 .      A
C229  C234  1.363 .      A
C230  C231  1.368 .      A
C231  C232  1.377 .      A
C232  C233  1.378 .      A
C233  C234  1.351 .      A
C234  N78   1.351 .      A
C237  N80   1.388 .      A
C237  N81   1.388 .      A
N80   C238  1.349 .      A
C238  C239  1.363 .      A
C238  C243  1.358 .      A
C239  C240  1.376 1_655  A
C240  C239  1.376 1_455  A
C240  C241  1.374 1_455  A
C241  C240  1.374 1_655  A
C241  C242  1.372 .      A
C242  C243  1.359 .      A
C243  N81   1.336 .      A
C246  N83   1.398 .      A
C246  N84   1.395 .      A
N83   C247  1.346 .      A
C247  C248  1.372 .      A
C247  C252  1.355 .      A
C248  C249  1.374 .      A
C249  C250  1.373 .      A
C250  C251  1.372 .      A
C251  C252  1.358 .      A
C252  N84   1.346 .      A
C255  N86   1.386 1_455  A
C255  N87   1.387 .      A
N86   C255  1.386 1_655  A
N86   C256  1.362 1_655  A
C256  N86   1.362 1_455  A
C256  C257  1.370 .      A
C256  C261  1.361 .      A
C257  C258  1.380 .      A
C258  C259  1.376 1_556  A
C259  C258  1.376 1_554  A
C259  C260  1.364 .      A
C260  C261  1.369 1_554  A
C261  C260  1.369 1_556  A
C261  N87   1.328 .      A
C264  N89   1.385 .      A
C264  N90   1.386 .      A
N89   C265  1.350 .      A
C265  C266  1.365 .      A
C265  C270  1.355 .      A
C266  C267  1.383 1_545  A
C267  C266  1.383 1_565  A
C267  C268  1.386 1_565  A
C268  C267  1.386 1_545  A
C268  C269  1.379 .      A
C269  C270  1.367 .      A
C270  N90   1.337 .      A
C273  N92   1.394 .      A
C273  N93   1.401 1_455  A
N92   C274  1.346 .      A
C274  C275  1.366 .      A
C274  C279  1.360 .      A
C275  C276  1.375 .      A
C276  C277  1.382 .      A
C277  C278  1.380 .      A
C278  C279  1.361 .      A
C279  N93   1.337 1_455  A
N93   C273  1.401 1_655  A
N93   C279  1.337 1_655  A
C282  N95   1.379 .      A
C282  N96   1.394 .      A
N95   C283  1.331 .      A
C283  C284  1.355 .      A
C283  C288  1.358 .      A
C284  C285  1.368 .      A
C285  C286  1.389 .      A
C286  C287  1.382 .      A
C287  C288  1.369 .      A
C288  N96   1.345 .      A
C291  N98   1.394 1_565  A
C291  N99   1.397 1_565  A
N98   C291  1.394 1_545  A
N98   C292  1.337 .      A
C292  C293  1.356 .      A
C292  C297  1.358 .      A
C293  C294  1.376 .      A
C294  C295  1.380 1_655  A
C295  C294  1.380 1_455  A
C295  C296  1.381 1_455  A
C296  C295  1.381 1_655  A
C296  C297  1.374 .      A
C297  N99   1.356 .      A
N99   C291  1.397 1_545  A
C300  N101  1.393 .      A
C300  N102  1.370 .      A
N101  C301  1.369 .      A
C301  C302  1.385 .      A
C301  C306  1.357 .      A
C302  C303  1.381 .      A
C303  C304  1.376 .      A
C304  C305  1.373 .      A
C305  C306  1.364 .      A
C306  N102  1.337 .      A
C309  N104  1.389 .      A
C309  N105  1.393 .      A
N104  C310  1.326 .      A
C310  C311  1.349 .      A
C310  C315  1.358 .      A
C311  C312  1.371 .      A
C312  C313  1.379 .      A
C313  C314  1.380 .      A
C314  C315  1.362 .      A
C315  N105  1.354 .      A
C318  N107  1.384 .      A
C318  N108  1.390 .      A
N107  C319  1.349 .      A
C319  C320  1.368 .      A
C319  C324  1.350 .      A
C320  C321  1.386 .      A
C321  C322  1.380 .      A
C322  C323  1.377 .      A
C323  C324  1.356 .      A
C324  N108  1.338 .      A
C327  N110  1.385 .      A
C327  N111  1.383 .      A
N110  C328  1.348 .      A
C328  C329  1.367 .      A
C328  C333  1.354 .      A
C329  C330  1.378 .      A
C330  C331  1.383 .      A
C331  C332  1.379 .      A
C332  C333  1.359 .      A
C333  N111  1.335 .      A
C336  N113  1.388 .      A
C336  N114  1.383 .      A
N113  C337  1.346 .      A
C337  C338  1.367 .      A
C337  C342  1.358 .      A
C338  C339  1.379 .      A
C339  C340  1.382 .      A
C340  C341  1.383 .      A
C341  C342  1.374 .      A
C342  N114  1.352 .      A
C345  N116  1.381 .      A
C345  N117  1.380 .      A
N116  C346  1.349 .      A
C346  C347  1.371 .      A
C346  C351  1.362 .      A
C347  C348  1.381 .      A
C348  C349  1.386 .      A
C349  C350  1.384 .      A
C350  C351  1.372 .      A
C351  N117  1.349 .      A
C354  N119  1.389 .      A
C354  N120  1.364 .      A
N119  C355  1.352 .      A
C355  C356  1.368 .      A
C355  C360  1.350 .      A
C356  C357  1.370 .      A
C357  C358  1.372 .      A
C358  C359  1.366 .      A
C359  C360  1.363 .      A
C360  N120  1.335 .      A
C363  N122  1.377 .      A
C363  N123  1.390 .      A
N122  C364  1.346 .      A
C364  C365  1.364 .      A
C364  C369  1.361 .      A
C365  C366  1.375 .      A
C366  C367  1.375 .      A
C367  C368  1.380 .      A
C368  C369  1.378 .      A
C369  N123  1.356 .      A
C372  N125  1.377 .      A
C372  N126  1.375 .      A
N125  C373  1.361 .      A
C373  C374  1.376 .      A
C373  C378  1.363 .      A
C374  C375  1.386 .      A
C375  C376  1.378 .      A
C376  C377  1.375 .      A
C377  C378  1.372 .      A
C378  N126  1.342 .      A
C381  N128  1.379 .      A
C381  N129  1.386 .      A
N128  C382  1.353 .      A
C382  C383  1.360 .      A
C382  C387  1.357 .      A
C383  C384  1.382 .      A
C384  C385  1.384 .      A
C385  C386  1.380 .      A
C386  C387  1.372 .      A
C387  N129  1.337 .      A
C390  N131  1.387 .      A
C390  N132  1.374 .      A
N131  C391  1.355 .      A
C391  C392  1.379 .      A
C391  C396  1.364 .      A
C392  C393  1.372 .      A
C393  C394  1.367 .      A
C394  C395  1.372 .      A
C395  C396  1.371 .      A
C396  N132  1.347 .      A
C399  N134  1.396 .      A
C399  N135  1.384 .      A
N134  C400  1.352 .      A
C400  C401  1.378 1_545  A
C400  C405  1.367 .      A
C401  C400  1.378 1_565  A
C401  C402  1.381 .      A
C402  C403  1.382 1_565  A
C403  C402  1.382 1_545  A
C403  C404  1.382 .      A
C404  C405  1.370 .      A
C405  N135  1.349 .      A
C408  N137  1.404 .      A
C408  N138  1.394 .      A
N137  C409  1.342 .      A
C409  C410  1.363 .      A
C409  C414  1.368 .      A
C410  C411  1.373 .      A
C411  C412  1.378 1_655  A
C412  C411  1.378 1_455  A
C412  C413  1.382 1_455  A
C413  C412  1.382 1_655  A
C413  C414  1.375 .      A
C414  N138  1.356 .      A
C417  N140  1.381 .      A
C417  N141  1.383 .      A
N140  C418  1.353 .      A
C418  C419  1.365 .      A
C418  C423  1.359 .      A
C419  C420  1.376 .      A
C420  C421  1.377 .      A
C421  C422  1.370 .      A
C422  C423  1.375 .      A
C423  N141  1.333 .      A
C426  N143  1.367 .      A
C426  N144  1.363 .      A
N143  C427  1.342 .      A
C427  C428  1.362 .      A
C427  C432  1.358 .      A
C428  C429  1.379 .      A
C429  C430  1.384 .      A
C430  C431  1.382 .      A
C431  C432  1.377 .      A
C432  N144  1.353 .      A
C435  N146  1.381 .      A
C435  N147  1.382 .      A
N146  C436  1.350 .      A
C436  C437  1.359 .      A
C436  C441  1.360 .      A
C437  C438  1.374 .      A
C438  C439  1.383 .      A
C439  C440  1.377 .      A
C440  C441  1.372 .      A
C441  N147  1.334 .      A
C444  N149  1.396 .      A
C444  N150  1.381 .      A
N149  C445  1.340 .      A
C445  C446  1.362 .      A
C445  C450  1.350 .      A
C446  C447  1.374 .      A
C447  C448  1.376 .      A
C448  C449  1.381 .      A
C449  C450  1.382 .      A
C450  N150  1.364 .      A
C453  N152  1.378 .      A
C453  N153  1.372 .      A
N152  C454  1.342 .      A
C454  C455  1.372 .      A
C454  C459  1.366 .      A
C455  C456  1.381 .      A
C456  C457  1.385 .      A
C457  C458  1.383 .      A
C458  C459  1.361 .      A
C459  N153  1.347 .      A
C462  N155  1.390 1_565  A
C462  N156  1.389 .      A
N155  C462  1.390 1_545  A
N155  C463  1.349 1_545  A
C463  N155  1.349 1_565  A
C463  C464  1.365 1_565  A
C463  C468  1.361 .      A
C464  C463  1.365 1_545  A
C464  C465  1.387 .      A
C465  C466  1.379 1_545  A
C466  C465  1.379 1_565  A
C466  C467  1.364 .      A
C467  C468  1.348 .      A
C468  N156  1.331 .      A
C471  N158  1.390 .      A
C471  N159  1.383 .      A
N158  C472  1.338 .      A
C472  C473  1.366 .      A
C472  C477  1.352 .      A
C473  C474  1.372 .      A
C474  C475  1.378 .      A
C475  C476  1.361 .      A
C476  C477  1.356 .      A
C477  N159  1.340 .      A
C480  N161  1.396 1_545  A
C480  N162  1.411 .      A
N161  C480  1.396 1_565  A
N161  C481  1.337 .      A
C481  C482  1.372 .      A
C481  C486  1.361 1_565  A
C482  C483  1.383 .      A
C483  C484  1.386 1_565  A
C484  C483  1.386 1_545  A
C484  C485  1.383 .      A
C485  C486  1.356 .      A
C486  C481  1.361 1_545  A
C486  N162  1.352 .      A
C489  N164  1.365 .      A
C489  N165  1.369 .      A
N164  C490  1.351 .      A
C490  C491  1.383 .      A
C490  C495  1.348 .      A
C491  C492  1.380 .      A
C492  C493  1.378 .      A
C493  C494  1.377 .      A
C494  C495  1.362 .      A
C495  N165  1.347 .      A
C498  N167  1.384 .      A
C498  N168  1.377 .      A
N167  C499  1.361 .      A
C499  C500  1.372 .      A
C499  C504  1.373 .      A
C500  C501  1.378 .      A
C501  C502  1.376 .      A
C502  C503  1.375 .      A
C503  C504  1.371 .      A
C504  N168  1.340 .      A
C507  N170  1.380 .      A
C507  N171  1.387 .      A
N170  C508  1.351 .      A
C508  C509  1.375 .      A
C508  C513  1.347 .      A
C509  C510  1.374 .      A
C510  C511  1.373 .      A
C511  C512  1.376 .      A
C512  C513  1.359 .      A
C513  N171  1.344 .      A
C516  N173  1.382 .      A
C516  N174  1.377 .      A
N173  C517  1.345 .      A
C517  C518  1.370 .      A
C517  C522  1.363 .      A
C518  C519  1.374 .      A
C519  C520  1.378 .      A
C520  C521  1.383 .      A
C521  C522  1.375 .      A
C522  N174  1.348 .      A
C525  N176  1.392 .      A
C525  N177  1.393 .      A
N176  C526  1.351 .      A
C526  C527  1.359 .      A
C526  C531  1.358 .      A
C527  C528  1.362 .      A
C528  C529  1.360 .      A
C529  C530  1.374 .      A
C530  C531  1.374 .      A
C531  N177  1.345 .      A
C534  N179  1.381 .      A
C534  N180  1.381 .      A
N179  C535  1.355 .      A
C535  C536  1.376 .      A
C535  C540  1.373 .      A
C536  C537  1.369 .      A
C537  C538  1.372 .      A
C538  C539  1.375 .      A
C539  C540  1.370 .      A
C540  N180  1.348 .      A
C543  N182  1.416 .      A
C543  N183  1.389 .      A
N182  C544  1.355 .      A
C544  C545  1.368 .      A
C544  C549  1.363 .      A
C545  C546  1.379 1_455  A
C546  C545  1.379 1_655  A
C546  C547  1.361 .      A
C547  C548  1.363 1_655  A
C548  C547  1.363 1_455  A
C548  C549  1.372 .      A
C549  N183  1.341 .      A
C552  N185  1.396 .      A
C552  N186  1.383 .      A
N185  C553  1.327 .      A
C553  C554  1.357 .      A
C553  C558  1.358 .      A
C554  C555  1.367 .      A
C555  C556  1.388 .      A
C556  C557  1.376 .      A
C557  C558  1.362 .      A
C558  N186  1.341 .      A
C561  N188  1.385 .      A
C561  N189  1.382 1_455  A
N188  C562  1.341 .      A
C562  C563  1.373 .      A
C562  C567  1.357 1_455  A
C563  C564  1.380 1_455  A
C564  C563  1.380 1_655  A
C564  C565  1.384 .      A
C565  C566  1.383 .      A
C566  C567  1.378 .      A
C567  C562  1.357 1_655  A
C567  N189  1.360 .      A
N189  C561  1.382 1_655  A
C570  N191  1.399 .      A
C570  N192  1.382 .      A
N191  C571  1.336 .      A
C571  C572  1.372 .      A
C571  C576  1.363 .      A
C572  C573  1.372 .      A
C573  C574  1.377 .      A
C574  C575  1.376 .      A
C575  C576  1.361 .      A
C576  N192  1.351 .      A
C579  N194  1.392 .      A
C579  N195  1.387 1_565  A
N194  C580  1.346 .      A
C580  C581  1.368 .      A
C580  C585  1.351 1_565  A
C581  C582  1.377 .      A
C582  C583  1.380 1_565  A
C583  C582  1.380 1_545  A
C583  C584  1.382 .      A
C584  C585  1.366 .      A
C585  C580  1.351 1_545  A
C585  N195  1.346 .      A
N195  C579  1.387 1_545  A
C588  N197  1.393 .      A
C588  N198  1.384 .      A
N197  C589  1.340 .      A
C589  C590  1.368 .      A
C589  C594  1.353 .      A
C590  C591  1.383 .      A
C591  C592  1.393 .      A
C592  C593  1.381 .      A
C593  C594  1.365 .      A
C594  N198  1.341 .      A
C597  N200  1.384 .      A
C597  N201  1.391 .      A
N200  C598  1.341 .      A
C598  C599  1.360 .      A
C598  C603  1.361 .      A
C599  C600  1.371 .      A
C600  C601  1.373 .      A
C601  C602  1.364 .      A
C602  C603  1.351 .      A
C603  N201  1.336 .      A
C606  N203  1.398 .      A
C606  N204  1.394 .      A
N203  C607  1.342 .      A
C607  C608  1.367 .      A
C607  C612  1.372 .      A
C608  C609  1.377 .      A
C609  C610  1.378 .      A
C610  C611  1.380 .      A
C611  C612  1.375 .      A
C612  N204  1.356 .      A
C615  N206  1.386 .      A
C615  N207  1.386 .      A
N206  C616  1.336 .      A
C616  C617  1.372 .      A
C616  C621  1.368 .      A
C617  C618  1.381 .      A
C618  C619  1.386 .      A
C619  C620  1.386 .      A
C620  C621  1.370 .      A
C621  N207  1.365 .      A
C624  N209  1.391 .      A
C624  N210  1.372 .      A
N209  C625  1.363 .      A
C625  C626  1.378 .      A
C625  C630  1.354 .      A
C626  C627  1.384 .      A
C627  C628  1.380 .      A
C628  C629  1.378 .      A
C629  C630  1.380 .      A
C630  N210  1.338 .      A
C633  N212  1.383 .      A
C633  N213  1.375 .      A
N212  C634  1.350 .      A
C634  C635  1.379 .      A
C634  C639  1.358 .      A
C635  C636  1.380 .      A
C636  C637  1.379 .      A
C637  C638  1.381 .      A
C638  C639  1.373 .      A
C639  N213  1.351 .      A
C642  N215  1.372 .      A
C642  N216  1.387 .      A
N215  C643  1.343 .      A
C643  C644  1.372 .      A
C643  C648  1.350 .      A
C644  C645  1.377 .      A
C645  C646  1.380 .      A
C646  C647  1.385 .      A
C647  C648  1.366 .      A
C648  N216  1.348 .      A
C651  N218  1.364 .      A
C651  N219  1.377 .      A
N218  C652  1.340 .      A
C652  C653  1.369 .      A
C652  C657  1.356 .      A
C653  C654  1.382 .      A
C654  C655  1.387 .      A
C655  C656  1.385 .      A
C656  C657  1.383 .      A
C657  N219  1.361 .      A
C660  N221  1.398 .      A
C660  N222  1.383 .      A
N221  C661  1.344 .      A
C661  C662  1.361 .      A
C661  C666  1.359 .      A
C662  C663  1.382 .      A
C663  C664  1.386 .      A
C664  C665  1.382 .      A
C665  C666  1.369 .      A
C666  N222  1.347 .      A
C669  N224  1.384 .      A
C669  N225  1.383 .      A
N224  C670  1.349 .      A
C670  C671  1.366 .      A
C670  C675  1.356 .      A
C671  C672  1.387 .      A
C672  C673  1.384 .      A
C673  C674  1.375 .      A
C674  C675  1.370 .      A
C675  N225  1.340 .      A
C678  N227  1.394 1_556  A
C678  N228  1.394 1_455  A
N227  C678  1.394 1_554  A
N227  C679  1.338 .      A
C679  C680  1.369 .      A
C679  C684  1.347 .      A
C680  C681  1.375 .      A
C681  C682  1.377 1_545  A
C682  C681  1.377 1_565  A
C682  C683  1.383 .      A
C683  C684  1.358 1_565  A
C684  C683  1.358 1_545  A
C684  N228  1.349 1_454  A
N228  C678  1.394 1_655  A
N228  C684  1.349 1_656  A
C687  N230  1.378 1_554  A
C687  N231  1.383 1_554  A
N230  C687  1.378 1_556  A
N230  C688  1.333 .      A
C688  C689  1.363 .      A
C688  C693  1.348 .      A
C689  C690  1.375 .      A
C690  C691  1.382 .      A
C691  C692  1.375 .      A
C692  C693  1.348 .      A
C693  N231  1.334 .      A
N231  C687  1.383 1_556  A
C696  N233  1.397 .      A
C696  N234  1.385 1_565  A
N233  C697  1.345 1_565  A
C697  N233  1.345 1_545  A
C697  C698  1.354 .      A
C697  C702  1.359 .      A
C698  C699  1.384 .      A
C699  C700  1.382 .      A
C700  C701  1.379 .      A
C701  C702  1.354 .      A
C702  N234  1.340 .      A
N234  C696  1.385 1_545  A
C705  N236  1.363 .      A
C705  N237  1.388 .      A
N236  C706  1.344 .      A
C706  C707  1.373 .      A
C706  C711  1.361 .      A
C707  C708  1.376 .      A
C708  C709  1.378 .      A
C709  C710  1.371 .      A
C710  C711  1.371 .      A
C711  N237  1.355 .      A
C714  N239  1.378 .      A
C714  N240  1.375 .      A
N239  C715  1.343 .      A
C715  C716  1.363 .      A
C715  C720  1.345 .      A
C716  C717  1.376 .      A
C717  C718  1.379 .      A
C718  C719  1.381 .      A
C719  C720  1.381 .      A
C720  N240  1.351 .      A
C723  N242  1.381 1_565  A
C723  N243  1.392 .      A
N242  C723  1.381 1_545  A
N242  C724  1.339 .      A
C724  C725  1.372 .      A
C724  C729  1.363 .      A
C725  C726  1.377 .      A
C726  C727  1.386 1_554  A
C727  C726  1.386 1_556  A
C727  C728  1.377 .      A
C728  C729  1.368 1_556  A
C729  C728  1.368 1_554  A
C729  N243  1.354 1_545  A
N243  C729  1.354 1_565  A
C732  N245  1.390 .      A
C732  N246  1.389 .      A
N245  C733  1.334 .      A
C733  C734  1.357 .      A
C733  C738  1.346 .      A
C734  C735  1.378 .      A
C735  C736  1.378 .      A
C736  C737  1.383 .      A
C737  C738  1.346 .      A
C738  N246  1.332 .      A
C741  N248  1.386 .      A
C741  N249  1.380 .      A
N248  C742  1.357 .      A
C742  C743  1.375 .      A
C742  C747  1.363 .      A
C743  C744  1.378 .      A
C744  C745  1.381 .      A
C745  C746  1.377 .      A
C746  C747  1.370 .      A
C747  N249  1.336 .      A
C750  N251  1.380 .      A
C750  N252  1.372 .      A
N251  C751  1.352 .      A
C751  C752  1.369 .      A
C751  C756  1.364 .      A
C752  C753  1.382 .      A
C753  C754  1.387 .      A
C754  C755  1.372 .      A
C755  C756  1.363 .      A
C756  N252  1.337 .      A
C759  N254  1.381 .      A
C759  N255  1.378 .      A
N254  C760  1.367 .      A
C760  C761  1.385 .      A
C760  C765  1.362 .      A
C761  C762  1.385 .      A
C762  C763  1.385 1_565  A
C763  C762  1.385 1_545  A
C763  C764  1.380 .      A
C764  C765  1.374 1_545  A
C765  C764  1.374 1_565  A
C765  N255  1.340 .      A
C768  N257  1.381 .      A
C768  N258  1.379 .      A
N257  C769  1.331 .      A
C769  C770  1.364 .      A
C769  C774  1.339 .      A
C770  C771  1.380 .      A
C771  C772  1.374 .      A
C772  C773  1.380 .      A
C773  C774  1.342 .      A
C774  N258  1.335 .      A
C777  N260  1.398 .      A
C777  N261  1.400 .      A
N260  C778  1.337 .      A
C778  C779  1.367 .      A
C778  C783  1.358 .      A
C779  C780  1.368 .      A
C780  C781  1.375 .      A
C781  C782  1.374 .      A
C782  C783  1.361 .      A
C783  N261  1.352 .      A
C786  N263  1.380 .      A
C786  N264  1.392 .      A
N263  C787  1.360 .      A
C787  C788  1.374 .      A
C787  C792  1.354 .      A
C788  C789  1.376 1_655  A
C789  C788  1.376 1_455  A
C789  C790  1.380 1_455  A
C790  C789  1.380 1_655  A
C790  C791  1.375 .      A
C791  C792  1.367 .      A
C792  N264  1.340 .      A
C795  N266  1.380 .      A
C795  N267  1.387 .      A
N266  C796  1.334 .      A
C796  C797  1.347 .      A
C796  C801  1.359 .      A
C797  C798  1.364 .      A
C798  C799  1.373 .      A
C799  C800  1.384 .      A
C800  C801  1.380 .      A
C801  N267  1.355 .      A
C804  N269  1.407 .      A
C804  N270  1.384 .      A
N269  C805  1.366 .      A
C805  C806  1.381 .      A
C805  C810  1.365 .      A
C806  C807  1.378 .      A
C807  C808  1.374 .      A
C808  C809  1.375 .      A
C809  C810  1.378 .      A
C810  N270  1.352 .      A
C813  N272  1.380 .      A
C813  N273  1.384 .      A
N272  C814  1.341 .      A
C814  C815  1.355 .      A
C814  C819  1.354 .      A
C815  C816  1.385 .      A
C816  C817  1.389 .      A
C817  C818  1.385 .      A
C818  C819  1.374 .      A
C819  N273  1.347 .      A
C822  N275  1.385 .      A
C822  N276  1.374 .      A
N275  C823  1.350 .      A
C823  C824  1.375 .      A
C823  C828  1.373 .      A
C824  C825  1.381 .      A
C825  C826  1.384 .      A
C826  C827  1.383 .      A
C827  C828  1.375 .      A
C828  N276  1.355 .      A
C831  N278  1.393 .      A
C831  N279  1.388 .      A
N278  C832  1.338 .      A
C832  C833  1.362 .      A
C832  C837  1.361 .      A
C833  C834  1.373 .      A
C834  C835  1.386 .      A
C835  C836  1.382 .      A
C836  C837  1.367 .      A
C837  N279  1.344 .      A
C840  N281  1.389 .      A
C840  N282  1.399 .      A
N281  C841  1.365 .      A
C841  C842  1.382 .      A
C841  C846  1.364 .      A
C842  C843  1.381 1_655  A
C843  C842  1.381 1_455  A
C843  C844  1.378 1_455  A
C844  C843  1.378 1_655  A
C844  C845  1.374 .      A
C845  C846  1.361 .      A
C846  N282  1.335 .      A
C849  N284  1.388 .      A
C849  N285  1.391 .      A
N284  C850  1.355 .      A
C850  C851  1.363 .      A
C850  C855  1.348 .      A
C851  C852  1.365 .      A
C852  C853  1.352 .      A
C853  C854  1.357 .      A
C854  C855  1.368 .      A
C855  N285  1.340 .      A
C858  N287  1.376 .      A
C858  N288  1.403 .      A
N287  C859  1.351 .      A
C859  C860  1.374 .      A
C859  C864  1.366 .      A
C860  C861  1.385 .      A
C861  C862  1.378 .      A
C862  C863  1.376 .      A
C863  C864  1.379 .      A
C864  N288  1.356 .      A
C867  N290  1.392 .      A
C867  N291  1.388 .      A
N290  C868  1.339 .      A
C868  C869  1.361 .      A
C868  C873  1.356 .      A
C869  C870  1.373 .      A
C870  C871  1.381 .      A
C871  C872  1.389 .      A
C872  C873  1.370 .      A
C873  N291  1.346 .      A
C876  N293  1.397 1_545  A
C876  N294  1.389 .      A
N293  C876  1.397 1_565  A
N293  C877  1.341 .      A
C877  C878  1.360 .      A
C877  C882  1.357 .      A
C878  C879  1.376 .      A
C879  C880  1.381 .      A
C880  C881  1.369 .      A
C881  C882  1.363 .      A
C882  N294  1.341 1_565  A
N294  C882  1.341 1_545  A
C885  N296  1.378 .      A
C885  N297  1.379 .      A
N296  C886  1.354 .      A
C886  C887  1.372 .      A
C886  C891  1.375 .      A
C887  C888  1.383 .      A
C888  C889  1.367 .      A
C889  C890  1.363 .      A
C890  C891  1.368 .      A
C891  N297  1.343 .      A
C894  N299  1.381 1_545  A
C894  N300  1.381 .      A
N299  C894  1.381 1_565  A
N299  C895  1.339 .      A
C895  C896  1.346 .      A
C895  C900  1.345 1_565  A
C896  C897  1.374 1_565  A
C897  C896  1.374 1_545  A
C897  C898  1.366 .      A
C898  C899  1.371 .      A
C899  C900  1.367 .      A
C900  C895  1.345 1_545  A
C900  N300  1.330 .      A
C903  N302  1.386 .      A
C903  N303  1.373 .      A
N302  C904  1.339 .      A
C904  C905  1.354 .      A
C904  C909  1.349 .      A
C905  C906  1.386 .      A
C906  C907  1.372 .      A
C907  C908  1.369 .      A
C908  C909  1.365 .      A
C909  N303  1.344 .      A
C912  N305  1.395 .      A
C912  N306  1.391 .      A
N305  C913  1.357 .      A
C913  C914  1.369 .      A
C913  C918  1.356 .      A
C914  C915  1.380 .      A
C915  C916  1.379 .      A
C916  C917  1.364 .      A
C917  C918  1.364 .      A
C918  N306  1.333 .      A
C921  N308  1.370 .      A
C921  N309  1.377 .      A
N308  C922  1.354 .      A
C922  C923  1.372 .      A
C922  C927  1.360 .      A
C923  C924  1.376 .      A
C924  C925  1.380 .      A
C925  C926  1.371 .      A
C926  C927  1.361 .      A
C927  N309  1.336 .      A
C930  N311  1.387 .      A
C930  N312  1.374 .      A
N311  C931  1.346 .      A
C931  C932  1.374 .      A
C931  C936  1.360 .      A
C932  C933  1.385 .      A
C933  C934  1.392 .      A
C934  C935  1.387 .      A
C935  C936  1.372 .      A
C936  N312  1.348 .      A
C939  N314  1.379 .      A
C939  N315  1.394 .      A
N314  C940  1.346 .      A
C940  C941  1.372 .      A
C940  C945  1.359 .      A
C941  C942  1.383 .      A
C942  C943  1.385 .      A
C943  C944  1.381 .      A
C944  C945  1.369 .      A
C945  N315  1.354 .      A
C948  N317  1.391 .      A
C948  N318  1.389 .      A
N317  C949  1.329 .      A
C949  C950  1.358 .      A
C949  C954  1.355 .      A
C950  C951  1.366 .      A
C951  C952  1.367 .      A
C952  C953  1.360 .      A
C953  C954  1.349 .      A
C954  N318  1.335 .      A
C957  N320  1.393 .      A
C957  N321  1.371 .      A
N320  C958  1.349 .      A
C958  C959  1.371 .      A
C958  C963  1.358 .      A
C959  C960  1.378 .      A
C960  C961  1.374 .      A
C961  C962  1.378 .      A
C962  C963  1.376 .      A
C963  N321  1.355 .      A
C966  N323  1.381 .      A
C966  N324  1.393 .      A
N323  C967  1.338 .      A
C967  C968  1.361 .      A
C967  C972  1.358 .      A
C968  C969  1.367 1_545  A
C969  C968  1.367 1_565  A
C969  C970  1.379 1_565  A
C970  C969  1.379 1_545  A
C970  C971  1.374 .      A
C971  C972  1.366 .      A
C972  N324  1.346 .      A
C975  N326  1.373 .      A
C975  N327  1.374 .      A
N326  C976  1.350 .      A
C976  C977  1.354 .      A
C976  C981  1.347 .      A
C977  C978  1.379 .      A
C978  C979  1.375 .      A
C979  C980  1.375 1_545  A
C980  C979  1.375 1_565  A
C980  C981  1.361 1_565  A
C981  C980  1.361 1_545  A
C981  N327  1.332 .      A
C984  N329  1.372 .      A
C984  N330  1.394 1_545  A
N329  C985  1.361 1_545  A
C985  N329  1.361 1_565  A
C985  C986  1.378 .      A
C985  C990  1.363 .      A
C986  C987  1.382 .      A
C987  C988  1.384 .      A
C988  C989  1.377 .      A
C989  C990  1.373 .      A
C990  N330  1.338 .      A
N330  C984  1.394 1_565  A
C993  N332  1.380 .      A
C993  N333  1.388 .      A
N332  C994  1.334 .      A
C994  C995  1.367 .      A
C994  C999  1.355 .      A
C995  C996  1.369 .      A
C996  C997  1.377 .      A
C997  C998  1.391 .      A
C998  C999  1.365 .      A
C999  N333  1.354 .      A
C1002 N335  1.383 .      A
C1002 N336  1.394 .      A
N335  C1003 1.330 1_565  A
C1003 N335  1.330 1_545  A
C1003 C1004 1.366 .      A
C1003 C1008 1.358 .      A
C1004 C1005 1.367 .      A
C1005 C1006 1.376 .      A
C1006 C1007 1.376 .      A
C1007 C1008 1.353 .      A
C1008 N336  1.354 1_545  A
N336  C1008 1.354 1_565  A
C1011 N338  1.376 .      A
C1011 N339  1.379 .      A
N338  C1012 1.335 .      A
C1012 C1013 1.370 .      A
C1012 C1017 1.358 1_554  A
C1013 C1014 1.378 1_554  A
C1014 C1013 1.378 1_556  A
C1014 C1015 1.385 .      A
C1015 C1016 1.382 .      A
C1016 C1017 1.373 .      A
C1017 C1012 1.358 1_556  A
C1017 N339  1.355 1_556  A
N339  C1017 1.355 1_554  A
C1020 N341  1.395 .      A
C1020 N342  1.384 .      A
N341  C1021 1.346 .      A
C1021 C1022 1.364 .      A
C1021 C1026 1.370 .      A
C1022 C1023 1.382 .      A
C1023 C1024 1.384 .      A
C1024 C1025 1.380 .      A
C1025 C1026 1.363 .      A
C1026 N342  1.341 .      A
C1029 N344  1.382 .      A
C1029 N345  1.385 .      A
N344  C1030 1.357 .      A
C1030 C1031 1.371 .      A
C1030 C1035 1.363 .      A
C1031 C1032 1.382 .      A
C1032 C1033 1.386 .      A
C1033 C1034 1.377 .      A
C1034 C1035 1.373 .      A
C1035 N345  1.339 .      A
C1038 N347  1.396 .      A
C1038 N348  1.379 .      A
N347  C1039 1.359 .      A
C1039 C1040 1.375 .      A
C1039 C1044 1.369 .      A
C1040 C1041 1.384 .      A
C1041 C1042 1.383 .      A
C1042 C1043 1.378 .      A
C1043 C1044 1.366 .      A
C1044 N348  1.336 .      A
C1047 N350  1.361 .      A
C1047 N351  1.387 .      A
N350  C1048 1.329 .      A
C1048 C1049 1.365 .      A
C1048 C1053 1.355 .      A
C1049 C1050 1.367 .      A
C1050 C1051 1.378 .      A
C1051 C1052 1.377 .      A
C1052 C1053 1.365 .      A
C1053 N351  1.357 .      A
C1056 N353  1.372 .      A
C1056 N354  1.373 .      A
N353  C1057 1.346 .      A
C1057 C1058 1.372 .      A
C1057 C1062 1.363 .      A
C1058 C1059 1.375 .      A
C1059 C1060 1.379 .      A
C1060 C1061 1.386 .      A
C1061 C1062 1.374 .      A
C1062 N354  1.357 .      A
C1065 N356  1.386 .      A
C1065 N357  1.382 .      A
N356  C1066 1.352 .      A
C1066 C1067 1.375 .      A
C1066 C1071 1.356 .      A
C1067 C1068 1.379 .      A
C1068 C1069 1.378 .      A
C1069 C1070 1.376 .      A
C1070 C1071 1.365 .      A
C1071 N357  1.349 .      A
C1074 N359  1.393 .      A
C1074 N360  1.386 .      A
N359  C1075 1.333 .      A
C1075 C1076 1.368 .      A
C1075 C1080 1.350 .      A
C1076 C1077 1.381 .      A
C1077 C1078 1.377 .      A
C1078 C1079 1.378 .      A
C1079 C1080 1.352 .      A
C1080 N360  1.348 .      A
C1083 N362  1.396 .      A
C1083 N363  1.384 .      A
N362  C1084 1.355 .      A
C1084 C1085 1.377 .      A
C1084 C1089 1.366 .      A
C1085 C1086 1.375 .      A
C1086 C1087 1.373 .      A
C1087 C1088 1.377 .      A
C1088 C1089 1.375 .      A
C1089 N363  1.349 .      A
C1092 N365  1.384 .      A
C1092 N366  1.380 .      A
N365  C1093 1.349 .      A
C1093 C1094 1.372 .      A
C1093 C1098 1.364 .      A
C1094 C1095 1.383 .      A
C1095 C1096 1.388 .      A
C1096 C1097 1.381 .      A
C1097 C1098 1.373 .      A
C1098 N366  1.344 .      A
C1101 N368  1.377 .      A
C1101 N369  1.382 .      A
N368  C1102 1.336 .      A
C1102 C1103 1.364 .      A
C1102 C1107 1.363 .      A
C1103 C1104 1.375 .      A
C1104 C1105 1.379 .      A
C1105 C1106 1.374 .      A
C1106 C1107 1.373 .      A
C1107 N369  1.358 .      A
C1110 N371  1.385 .      A
C1110 N372  1.393 .      A
N371  C1111 1.351 .      A
C1111 C1112 1.359 .      A
C1111 C1116 1.365 .      A
C1112 C1113 1.361 .      A
C1113 C1114 1.372 .      A
C1114 C1115 1.369 .      A
C1115 C1116 1.374 .      A
C1116 N372  1.342 .      A
C1119 N374  1.370 .      A
C1119 N375  1.392 1_455  A
N374  C1120 1.350 .      A
C1120 C1121 1.377 .      A
C1120 C1125 1.357 1_455  A
C1121 C1122 1.382 .      A
C1122 C1123 1.383 1_455  A
C1123 C1122 1.383 1_655  A
C1123 C1124 1.381 .      A
C1124 C1125 1.371 .      A
C1125 C1120 1.357 1_655  A
C1125 N375  1.344 .      A
N375  C1119 1.392 1_655  A
C1128 N377  1.392 .      A
C1128 N378  1.388 .      A
N377  C1129 1.351 .      A
C1129 C1130 1.371 .      A
C1129 C1134 1.363 .      A
C1130 C1131 1.379 .      A
C1131 C1132 1.376 .      A
C1132 C1133 1.374 .      A
C1133 C1134 1.370 .      A
C1134 N378  1.342 .      A
C1137 N380  1.387 .      A
C1137 N381  1.391 .      A
N380  C1138 1.343 .      A
C1138 C1139 1.364 .      A
C1138 C1143 1.359 .      A
C1139 C1140 1.386 .      A
C1140 C1141 1.392 .      A
C1141 C1142 1.381 .      A
C1142 C1143 1.369 .      A
C1143 N381  1.344 .      A
C1146 N383  1.394 .      A
C1146 N384  1.401 .      A
N383  C1147 1.339 .      A
C1147 C1148 1.364 .      A
C1147 C1152 1.363 .      A
C1148 C1149 1.369 .      A
C1149 C1150 1.377 .      A
C1150 C1151 1.376 .      A
C1151 C1152 1.359 .      A
C1152 N384  1.337 .      A
C1155 N386  1.394 .      A
C1155 N387  1.389 .      A
N386  C1156 1.348 .      A
C1156 C1157 1.369 .      A
C1156 C1161 1.363 .      A
C1157 C1158 1.382 .      A
C1158 C1159 1.385 .      A
C1159 C1160 1.382 .      A
C1160 C1161 1.366 .      A
C1161 N387  1.339 .      A
C1164 N389  1.381 .      A
C1164 N390  1.386 1_545  A
N389  C1165 1.348 .      A
C1165 C1166 1.361 .      A
C1165 C1170 1.352 .      A
C1166 C1167 1.376 .      A
C1167 C1168 1.372 .      A
C1168 C1169 1.373 .      A
C1169 C1170 1.370 .      A
C1170 N390  1.339 1_545  A
N390  C1164 1.386 1_565  A
N390  C1170 1.339 1_565  A
C1173 N392  1.374 .      A
C1173 N393  1.381 .      A
N392  C1174 1.344 .      A
C1174 C1175 1.376 .      A
C1174 C1179 1.355 .      A
C1175 C1176 1.377 .      A
C1176 C1177 1.375 .      A
C1177 C1178 1.378 .      A
C1178 C1179 1.370 .      A
C1179 N393  1.359 .      A
C1182 N395  1.381 1_455  A
C1182 N396  1.370 .      A
N395  C1182 1.381 1_655  A
N395  C1183 1.367 .      A
C1183 C1184 1.384 .      A
C1183 C1188 1.354 .      A
C1184 C1185 1.384 .      A
C1185 C1186 1.382 .      A
C1186 C1187 1.377 1_655  A
C1187 C1186 1.377 1_455  A
C1187 C1188 1.375 1_455  A
C1188 C1187 1.375 1_655  A
C1188 N396  1.339 1_655  A
N396  C1188 1.339 1_455  A
C1191 N398  1.373 1_455  A
C1191 N399  1.378 .      A
N398  C1191 1.373 1_655  A
N398  C1192 1.359 .      A
C1192 C1193 1.374 .      A
C1192 C1197 1.356 1_655  A
C1193 C1194 1.383 .      A
C1194 C1195 1.374 1_655  A
C1195 C1194 1.374 1_455  A
C1195 C1196 1.369 .      A
C1196 C1197 1.371 .      A
C1197 C1192 1.356 1_455  A
C1197 N399  1.337 .      A
C1200 N401  1.382 .      A
C1200 N402  1.388 .      A
N401  C1201 1.346 .      A
C1201 C1202 1.373 .      A
C1201 C1206 1.372 .      A
C1202 C1203 1.382 .      A
C1203 C1204 1.385 .      A
C1204 C1205 1.384 .      A
C1205 C1206 1.375 .      A
C1206 N402  1.356 .      A
C1209 N404  1.380 1_565  A
C1209 N405  1.391 .      A
N404  C1209 1.380 1_545  A
N404  C1210 1.348 .      A
C1210 C1211 1.364 .      A
C1210 C1215 1.361 .      A
C1211 C1212 1.383 .      A
C1212 C1213 1.377 .      A
C1213 C1214 1.372 .      A
C1214 C1215 1.368 .      A
C1215 N405  1.345 1_545  A
N405  C1215 1.345 1_565  A
C1218 N407  1.381 .      A
C1218 N408  1.391 .      A
N407  C1219 1.330 .      A
C1219 C1220 1.329 .      A
C1219 C1224 1.349 .      A
C1220 C1221 1.374 .      A
C1221 C1222 1.374 .      A
C1222 C1223 1.375 .      A
C1223 C1224 1.374 .      A
C1224 N408  1.351 .      A
C1227 N410  1.387 .      A
C1227 N411  1.379 .      A
N410  C1228 1.346 .      A
C1228 C1229 1.373 .      A
C1228 C1233 1.365 .      A
C1229 C1230 1.378 .      A
C1230 C1231 1.381 .      A
C1231 C1232 1.375 .      A
C1232 C1233 1.372 .      A
C1233 N411  1.351 .      A
C1236 N413  1.397 .      A
C1236 N414  1.376 .      A
N413  C1237 1.350 .      A
C1237 C1238 1.375 .      A
C1237 C1242 1.364 .      A
C1238 C1239 1.384 .      A
C1239 C1240 1.385 .      A
C1240 C1241 1.382 .      A
C1241 C1242 1.371 .      A
C1242 N414  1.349 .      A
C1245 N416  1.396 .      A
C1245 N417  1.401 .      A
N416  C1246 1.344 .      A
C1246 C1247 1.370 .      A
C1246 C1251 1.364 .      A
C1247 C1248 1.383 .      A
C1248 C1249 1.387 .      A
C1249 C1250 1.375 .      A
C1250 C1251 1.366 .      A
C1251 N417  1.350 .      A
C1254 N419  1.381 .      A
C1254 N420  1.380 .      A
N419  C1255 1.352 .      A
C1255 C1256 1.379 .      A
C1255 C1260 1.367 .      A
C1256 C1257 1.384 .      A
C1257 C1258 1.388 .      A
C1258 C1259 1.384 .      A
C1259 C1260 1.375 .      A
C1260 N420  1.348 .      A
C1263 N422  1.394 .      A
C1263 N423  1.401 .      A
N422  C1264 1.339 .      A
C1264 C1265 1.364 .      A
C1264 C1269 1.368 .      A
C1265 C1266 1.373 .      A
C1266 C1267 1.380 .      A
C1267 C1268 1.373 .      A
C1268 C1269 1.368 .      A
C1269 N423  1.346 .      A
C1272 N425  1.387 .      A
C1272 N426  1.392 .      A
N425  C1273 1.343 .      A
C1273 C1274 1.370 .      A
C1273 C1278 1.371 .      A
C1274 C1275 1.371 .      A
C1275 C1276 1.378 .      A
C1276 C1277 1.383 .      A
C1277 C1278 1.370 .      A
C1278 N426  1.353 .      A
C1281 N428  1.383 .      A
C1281 N429  1.379 .      A
N428  C1282 1.355 .      A
C1282 C1283 1.373 .      A
C1282 C1287 1.352 .      A
C1283 C1284 1.378 .      A
C1284 C1285 1.372 .      A
C1285 C1286 1.376 .      A
C1286 C1287 1.379 .      A
C1287 N429  1.347 .      A
C1290 N431  1.383 .      A
C1290 N432  1.376 .      A
N431  C1291 1.352 .      A
C1291 C1292 1.370 .      A
C1291 C1296 1.361 .      A
C1292 C1293 1.383 .      A
C1293 C1294 1.385 .      A
C1294 C1295 1.382 .      A
C1295 C1296 1.373 .      A
C1296 N432  1.350 .      A
