data_str_m1_o12004_FAU
_audit_creation_date              2015-10-01T06:30:11-0700
_symmetry_space_group_name_H-M    P1
_symmetry_Int_Tables_number       1
_space_group_crystal_system       triclinic
loop_
_symmetry_equiv_pos_as_xyz
  x,y,z
_cell_length_a                    35.6102601
_cell_length_b                    35.8195302
_cell_length_c                    34.9010989
_cell_angle_alpha                 119.564185
_cell_angle_beta                  118.299355
_cell_angle_gamma                 91.2969266
_cell_volume                      32124.0954499

loop_
_atom_site_label
_atom_site_type_symbol
_atom_site_description
_atom_site_fract_x
_atom_site_fract_y
_atom_site_fract_z
_atom_type_partial_charge
Zn1   Zn    Zn3+2 0.655167 0.026685 0.293124 0.000000
Zn2   Zn    Zn3+2 0.832116 0.024500 0.292020 0.000000
Zn3   Zn    Zn3+2 0.841871 0.201843 0.293358 0.000000
Zn4   Zn    Zn3+2 0.771367 0.284007 0.161961 0.000000
Zn5   Zn    Zn3+2 0.590573 0.811860 0.156747 0.000000
Zn6   Zn    Zn3+2 0.640211 0.018949 0.468432 0.000000
Zn7   Zn    Zn3+2 0.768474 0.810948 0.500412 0.000000
Zn8   Zn    Zn3+2 0.199072 0.574949 0.831852 0.000000
Zn9   Zn    Zn3+2 0.411497 0.456004 0.781862 0.000000
Zn10  Zn    Zn3+2 0.580770 0.275741 0.795494 0.000000
Zn11  Zn    Zn3+2 0.661348 0.209886 0.293596 0.000000
Zn12  Zn    Zn3+2 0.765108 0.627482 0.967500 0.000000
Zn13  Zn    Zn3+2 0.949520 0.815012 0.322165 0.000000
Zn14  Zn    Zn3+2 0.765183 0.808702 0.148421 0.000000
Zn15  Zn    Zn3+2 0.021815 0.385326 0.472940 0.000000
Zn16  Zn    Zn3+2 0.664427 0.376237 0.642557 0.000000
Zn17  Zn    Zn3+2 0.838617 0.571845 0.655757 0.000000
Zn18  Zn    Zn3+2 0.020899 0.570370 0.656306 0.000000
Zn19  Zn    Zn3+2 0.587845 0.448113 0.781115 0.000000
Zn20  Zn    Zn3+2 0.398126 0.449272 0.158091 0.000000
Zn21  Zn    Zn3+2 0.402734 0.276707 0.976156 0.000000
Zn22  Zn    Zn3+2 0.194090 0.382142 0.015701 0.000000
Zn23  Zn    Zn3+2 0.586995 0.472148 0.336661 0.000000
Zn24  Zn    Zn3+2 0.412034 0.620080 0.140456 0.000000
Zn25  Zn    Zn3+2 0.191904 0.203211 0.830376 0.000000
Zn26  Zn    Zn3+2 0.013750 0.383502 0.010164 0.000000
Zn27  Zn    Zn3+2 0.405349 0.288629 0.800708 0.000000
Zn28  Zn    Zn3+2 0.200822 0.553421 0.003950 0.000000
Zn29  Zn    Zn3+2 0.198229 0.390203 0.654664 0.000000
Zn30  Zn    Zn3+2 0.015732 0.027556 0.472149 0.000000
Zn31  Zn    Zn3+2 0.409287 0.634539 0.967009 0.000000
Zn32  Zn    Zn3+2 0.587265 0.291108 0.155619 0.000000
Zn33  Zn    Zn3+2 0.663257 0.393979 0.471567 0.000000
Zn34  Zn    Zn3+2 0.588423 0.804394 0.328472 0.000000
Zn35  Zn    Zn3+2 0.830851 0.208212 0.828967 0.000000
Zn36  Zn    Zn3+2 0.768424 0.647853 0.520708 0.000000
Zn37  Zn    Zn3+2 0.019275 0.553276 0.998486 0.000000
Zn38  Zn    Zn3+2 0.935166 0.455412 0.147508 0.000000
Zn39  Zn    Zn3+2 0.192738 0.207263 0.651959 0.000000
Zn40  Zn    Zn3+2 0.015842 0.028109 0.653867 0.000000
Zn41  Zn    Zn3+2 0.649912 0.200136 0.650393 0.000000
Zn42  Zn    Zn3+2 0.948596 0.643769 0.520565 0.000000
Zn43  Zn    Zn3+2 0.949883 0.814048 0.505940 0.000000
Zn44  Zn    Zn3+2 0.839796 0.553304 0.825265 0.000000
Zn45  Zn    Zn3+2 0.940126 0.631577 0.140214 0.000000
Zn46  Zn    Zn3+2 0.947010 0.461871 0.339937 0.000000
Zn47  Zn    Zn3+2 0.828683 0.028946 0.643283 0.000000
Zn48  Zn    Zn3+2 0.757819 0.275724 0.971512 0.000000
C1    C     C_3   0.652749 0.943286 0.136350 0.000000
N1    N     N_3   0.680374 0.957433 0.191187 0.000000
C2    C     C_3   0.708696 0.004099 0.223082 0.000000
C3    C     C_R   0.737316 0.023206 0.280487 0.000000
N2    N     N_R   0.720713 0.034548 0.311962 0.000000
C4    C     C_R   0.759021 0.053945 0.360236 0.000000
C5    C     C_R   0.763680 0.062441 0.404838 0.000000
C6    C     C_R   0.806569 0.083067 0.450396 0.000000
C7    C     C_R   0.844052 0.095733 0.450940 0.000000
C8    C     C_R   0.838841 0.083640 0.404180 0.000000
C9    C     C_R   0.795993 0.059202 0.358775 0.000000
N3    N     N_R   0.783938 0.036922 0.308503 0.000000
H1    H     H_    0.625068 0.910999 0.111868 0.000000
H2    H     H_    0.636975 0.968909 0.133601 0.000000
H3    H     H_    0.673684 0.938011 0.120033 0.000000
H4    H     H_    0.702762 0.939154 0.193513 0.000000
H5    H     H_    0.732027 0.004180 0.210929 0.000000
H6    H     H_    0.687732 0.025652 0.217631 0.000000
H7    H     H_    0.735356 0.050632 0.403539 0.000000
H8    H     H_    0.810032 0.090615 0.485867 0.000000
H9    H     H_    0.877315 0.114345 0.487386 0.000000
H10   H     H_    0.867458 0.093286 0.403759 0.000000
C10   C     C_3   0.946282 0.245223 0.257329 0.000000
N4    N     N_3   0.923426 0.255744 0.284701 0.000000
C11   C     C_3   0.956476 0.272310 0.339381 0.000000
C12   C     C_R   0.937575 0.287752 0.373080 0.000000
N5    N     N_R   0.965509 0.324133 0.426678 0.000000
C13   C     C_R   0.953258 0.308985 0.449018 0.000000
C14   C     C_R   0.976504 0.325213 0.501757 0.000000
C15   C     C_R   0.961034 0.301023 0.515479 0.000000
C16   C     C_R   0.925441 0.259920 0.476629 0.000000
C17   C     C_R   0.904021 0.242998 0.423575 0.000000
C18   C     C_R   0.917123 0.269209 0.411004 0.000000
N6    N     N_R   0.903332 0.256602 0.361964 0.000000
H11   H     H_    0.920727 0.228803 0.214507 0.000000
H12   H     H_    0.970828 0.276832 0.273232 0.000000
H13   H     H_    0.964145 0.221337 0.262116 0.000000
H14   H     H_    0.901023 0.224933 0.267413 0.000000
H15   H     H_    0.968502 0.244209 0.339654 0.000000
H16   H     H_    0.986355 0.300263 0.357454 0.000000
H17   H     H_    0.006052 0.355613 0.531463 0.000000
H18   H     H_    0.977512 0.313319 0.556597 0.000000
H19   H     H_    0.915184 0.240436 0.487860 0.000000
H20   H     H_    0.878763 0.209462 0.392892 0.000000
C19   C     C_3   0.711741 0.049195 0.163841 0.000000
N7    N     N_3   0.760398 0.061494 0.197992 0.000000
C20   C     C_3   0.779030 0.094049 0.254292 0.000000
C21   C     C_R   0.828410 0.107816 0.282255 0.000000
N8    N     N_R   0.848959 0.075873 0.283960 0.000000
C22   C     C_R   0.883908 0.087721 0.282018 0.000000
C23   C     C_R   0.912959 0.064464 0.275844 0.000000
C24   C     C_R   0.946114 0.082549 0.273769 0.000000
C25   C     C_R   0.948733 0.122423 0.276162 0.000000
C26   C     C_R   0.917945 0.144305 0.280126 0.000000
C27   C     C_R   0.885785 0.126336 0.282926 0.000000
N9    N     N_R   0.851324 0.140686 0.283684 0.000000
H21   H     H_    0.703833 0.050520 0.130029 0.000000
H22   H     H_    0.695328 0.013155 0.144918 0.000000
H23   H     H_    0.698145 0.070915 0.186237 0.000000
H24   H     H_    0.775981 0.074702 0.186392 0.000000
H25   H     H_    0.767797 0.123022 0.262509 0.000000
H26   H     H_    0.768922 0.079234 0.269700 0.000000
H27   H     H_    0.910701 0.033430 0.273458 0.000000
H28   H     H_    0.969895 0.065296 0.269828 0.000000
H29   H     H_    0.974358 0.135927 0.273721 0.000000
H30   H     H_    0.918342 0.173528 0.279153 0.000000
C28   C     C_3   0.627422 0.202698 0.975081 0.000000
N10   N     N_3   0.674538 0.217408 0.017422 0.000000
C29   C     C_3   0.697820 0.258625 0.028390 0.000000
C30   C     C_R   0.746808 0.265389 0.052423 0.000000
N11   N     N_R   0.773133 0.265537 0.096980 0.000000
C31   C     C_R   0.806544 0.252661 0.091729 0.000000
C32   C     C_R   0.841650 0.244814 0.123799 0.000000
C33   C     C_R   0.871967 0.230849 0.110472 0.000000
C34   C     C_R   0.867128 0.225624 0.066230 0.000000
C35   C     C_R   0.832290 0.234795 0.035363 0.000000
C36   C     C_R   0.801861 0.247832 0.048337 0.000000
N12   N     N_R   0.765656 0.258340 0.023755 0.000000
H31   H     H_    0.606390 0.176247 0.971237 0.000000
H32   H     H_    0.614901 0.232048 0.984159 0.000000
H33   H     H_    0.624195 0.187935 0.936822 0.000000
H34   H     H_    0.687763 0.192399 0.002338 0.000000
H35   H     H_    0.684245 0.253189 0.989749 0.000000
H36   H     H_    0.692318 0.288154 0.054794 0.000000
H37   H     H_    0.846615 0.250506 0.159413 0.000000
H38   H     H_    0.899873 0.224488 0.134928 0.000000
H39   H     H_    0.891165 0.214960 0.056223 0.000000
H40   H     H_    0.829747 0.231736 0.002252 0.000000
C37   C     C_3   0.845866 0.331027 0.368833 0.000000
N13   N     N_3   0.813170 0.292801 0.314277 0.000000
C38   C     C_3   0.831857 0.288238 0.284004 0.000000
C39   C     C_R   0.809547 0.244247 0.232435 0.000000
N14   N     N_R   0.822192 0.208207 0.231536 0.000000
C40   C     C_R   0.810583 0.179992 0.181278 0.000000
C41   C     C_R   0.816346 0.138438 0.158753 0.000000
C42   C     C_R   0.798534 0.113390 0.105001 0.000000
C43   C     C_R   0.775187 0.129902 0.075216 0.000000
C44   C     C_R   0.769953 0.171976 0.098820 0.000000
C45   C     C_R   0.788819 0.197046 0.152578 0.000000
N15   N     N_R   0.789136 0.239136 0.184275 0.000000
H41   H     H_    0.834264 0.334285 0.393886 0.000000
H42   H     H_    0.878199 0.325716 0.385638 0.000000
H43   H     H_    0.850422 0.362987 0.371319 0.000000
H44   H     H_    0.786525 0.304271 0.301393 0.000000
H45   H     H_    0.831578 0.315397 0.278753 0.000000
H46   H     H_    0.866378 0.289029 0.305067 0.000000
H47   H     H_    0.833454 0.125367 0.181973 0.000000
H48   H     H_    0.802153 0.080409 0.085864 0.000000
H49   H     H_    0.760835 0.109631 0.033077 0.000000
H50   H     H_    0.751172 0.183959 0.075053 0.000000
C46   C     C_3   0.882347 0.353276 0.146086 0.000000
N16   N     N_3   0.860694 0.369559 0.174235 0.000000
C47   C     C_3   0.881519 0.361995 0.215387 0.000000
C48   C     C_R   0.860137 0.376211 0.244779 0.000000
N17   N     N_R   0.882113 0.416019 0.294813 0.000000
C49   C     C_R   0.851822 0.416536 0.307420 0.000000
C50   C     C_R   0.855503 0.448989 0.353044 0.000000
C51   C     C_R   0.822836 0.439674 0.360739 0.000000
C52   C     C_R   0.787023 0.399241 0.322449 0.000000
C53   C     C_R   0.783639 0.367493 0.276400 0.000000
C54   C     C_R   0.815637 0.377443 0.268808 0.000000
N18   N     N_R   0.819424 0.350050 0.227821 0.000000
H51   H     H_    0.902500 0.382323 0.153079 0.000000
H52   H     H_    0.904988 0.335494 0.159217 0.000000
H53   H     H_    0.855857 0.329413 0.103872 0.000000
H54   H     H_    0.826625 0.349528 0.148172 0.000000
H55   H     H_    0.878213 0.326299 0.199787 0.000000
H56   H     H_    0.917839 0.382401 0.242408 0.000000
H57   H     H_    0.883603 0.480272 0.382815 0.000000
H58   H     H_    0.825215 0.463815 0.396826 0.000000
H59   H     H_    0.761917 0.392385 0.328966 0.000000
H60   H     H_    0.757708 0.335001 0.247970 0.000000
C55   C     C_3   0.620016 0.798260 0.028668 0.000000
N19   N     N_3   0.615008 0.825204 0.072495 0.000000
C56   C     C_3   0.658124 0.845130 0.123370 0.000000
C57   C     C_R   0.667125 0.811191 0.135373 0.000000
N20   N     N_R   0.636296 0.790750 0.138086 0.000000
C58   C     C_R   0.646020 0.752945 0.130923 0.000000
C59   C     C_R   0.628508 0.721888 0.135145 0.000000
C60   C     C_R   0.643603 0.685074 0.126200 0.000000
C61   C     C_R   0.677087 0.681870 0.116168 0.000000
C62   C     C_R   0.696414 0.715995 0.116307 0.000000
C63   C     C_R   0.680869 0.751332 0.124640 0.000000
N21   N     N_R   0.698904 0.790031 0.132716 0.000000
H61   H     H_    0.586838 0.772008 0.993035 0.000000
H62   H     H_    0.630569 0.820607 0.019670 0.000000
H63   H     H_    0.644900 0.780929 0.037928 0.000000
H64   H     H_    0.591431 0.803647 0.068725 0.000000
H65   H     H_    0.685304 0.858763 0.123195 0.000000
H66   H     H_    0.655590 0.872408 0.154626 0.000000
H67   H     H_    0.603347 0.726019 0.144395 0.000000
H68   H     H_    0.629410 0.658621 0.126880 0.000000
H69   H     H_    0.688552 0.652977 0.109392 0.000000
H70   H     H_    0.724312 0.717653 0.112851 0.000000
C64   C     C_3   0.721811 0.907028 0.271255 0.000000
N22   N     N_3   0.705579 0.943785 0.291599 0.000000
C65   C     C_3   0.660573 0.925294 0.276639 0.000000
C66   C     C_R   0.626437 0.920898 0.227598 0.000000
N23   N     N_R   0.620706 0.958866 0.227406 0.000000
C67   C     C_R   0.587452 0.940137 0.176390 0.000000
C68   C     C_R   0.567814 0.962394 0.153624 0.000000
C69   C     C_R   0.534220 0.936055 0.099840 0.000000
C70   C     C_R   0.521259 0.888741 0.070375 0.000000
C71   C     C_R   0.541425 0.866891 0.094175 0.000000
C72   C     C_R   0.574360 0.893448 0.147668 0.000000
N24   N     N_R   0.597887 0.879619 0.179093 0.000000
H71   H     H_    0.738822 0.898394 0.300175 0.000000
H72   H     H_    0.693168 0.878451 0.232520 0.000000
H73   H     H_    0.745796 0.917103 0.263770 0.000000
H74   H     H_    0.699679 0.954456 0.267519 0.000000
H75   H     H_    0.656124 0.892998 0.272389 0.000000
H76   H     H_    0.655639 0.949328 0.307372 0.000000
H77   H     H_    0.578618 0.999111 0.176554 0.000000
H78   H     H_    0.518142 0.952425 0.080469 0.000000
H79   H     H_    0.495130 0.868772 0.028376 0.000000
H80   H     H_    0.531280 0.830207 0.071231 0.000000
C73   C     C_3   0.821960 0.139775 0.589651 0.000000
N25   N     N_3   0.787253 0.094988 0.553158 0.000000
C74   C     C_3   0.768091 0.092243 0.580376 0.000000
C75   C     C_R   0.747461 0.044555 0.559270 0.000000
N26   N     N_R   0.700855 0.023107 0.525847 0.000000
C76   C     C_R   0.694690 0.998936 0.543443 0.000000
C77   C     C_R   0.654980 0.977073 0.531548 0.000000
C78   C     C_R   0.655594 0.960180 0.559575 0.000000
C79   C     C_R   0.696281 0.965226 0.599320 0.000000
C80   C     C_R   0.736218 0.987351 0.611022 0.000000
C81   C     C_R   0.734281 0.003184 0.581678 0.000000
N27   N     N_R   0.768961 0.029469 0.590874 0.000000
H81   H     H_    0.832859 0.147320 0.568650 0.000000
H82   H     H_    0.808222 0.166204 0.606681 0.000000
H83   H     H_    0.851784 0.141275 0.622197 0.000000
H84   H     H_    0.801431 0.069433 0.544446 0.000000
H85   H     H_    0.794821 0.110170 0.623165 0.000000
H86   H     H_    0.742282 0.108797 0.576576 0.000000
H87   H     H_    0.624003 0.974332 0.502595 0.000000
H88   H     H_    0.624173 0.943597 0.550915 0.000000
H89   H     H_    0.696431 0.952628 0.621701 0.000000
H90   H     H_    0.767862 0.995013 0.645079 0.000000
C82   C     C_3   0.685632 0.196267 0.537515 0.000000
N28   N     N_3   0.650655 0.162665 0.525584 0.000000
C83   C     C_3   0.670018 0.135072 0.543980 0.000000
C84   C     C_R   0.638282 0.111596 0.547329 0.000000
N29   N     N_R   0.629748 0.133476 0.586423 0.000000
C85   C     C_R   0.605431 0.098196 0.578656 0.000000
C86   C     C_R   0.594346 0.099462 0.611910 0.000000
C87   C     C_R   0.569125 0.059662 0.597416 0.000000
C88   C     C_R   0.557299 0.019065 0.551377 0.000000
C89   C     C_R   0.572351 0.017811 0.521029 0.000000
C90   C     C_R   0.597679 0.057806 0.535790 0.000000
N30   N     N_R   0.619757 0.064648 0.515716 0.000000
H91   H     H_    0.689549 0.230966 0.567198 0.000000
H92   H     H_    0.718496 0.190942 0.553772 0.000000
H93   H     H_    0.675456 0.194209 0.501030 0.000000
H94   H     H_    0.627863 0.141014 0.484461 0.000000
H95   H     H_    0.674836 0.108157 0.514624 0.000000
H96   H     H_    0.701990 0.155884 0.583454 0.000000
H97   H     H_    0.606511 0.130075 0.649751 0.000000
H98   H     H_    0.559445 0.060145 0.622656 0.000000
H99   H     H_    0.537657 0.987776 0.540088 0.000000
H100  H     H_    0.563597 0.985519 0.487089 0.000000
C91   C     C_3   0.756255 0.161253 0.495856 0.000000
N31   N     N_3   0.733168 0.116558 0.478621 0.000000
C92   C     C_3   0.687840 0.099632 0.432417 0.000000
C93   C     C_R   0.664894 0.049642 0.401848 0.000000
N32   N     N_R   0.643401 0.026564 0.347294 0.000000
C94   C     C_R   0.602651 0.001375 0.329067 0.000000
C95   C     C_R   0.563805 0.977866 0.278839 0.000000
C96   C     C_R   0.522970 0.966666 0.272477 0.000000
C97   C     C_R   0.521537 0.977667 0.315617 0.000000
C98   C     C_R   0.561322 0.998444 0.364924 0.000000
C99   C     C_R   0.601222 0.007424 0.369744 0.000000
N33   N     N_R   0.641246 0.033269 0.416052 0.000000
H101  H     H_    0.731704 0.176385 0.479859 0.000000
H102  H     H_    0.776759 0.184344 0.539734 0.000000
H103  H     H_    0.779404 0.158402 0.482807 0.000000
H104  H     H_    0.729740 0.121980 0.508614 0.000000
H105  H     H_    0.666640 0.117692 0.444193 0.000000
H106  H     H_    0.689218 0.105726 0.404847 0.000000
H107  H     H_    0.563414 0.970892 0.245242 0.000000
H108  H     H_    0.491842 0.951165 0.233939 0.000000
H109  H     H_    0.489347 0.971114 0.310933 0.000000
H110  H     H_    0.561684 0.012561 0.400317 0.000000
C100  C     C_3   0.751327 0.900363 0.651305 0.000000
N34   N     N_3   0.786857 0.936154 0.667095 0.000000
C101  C     C_3   0.811948 0.914778 0.644604 0.000000
C102  C     C_R   0.802016 0.918498 0.600260 0.000000
N35   N     N_R   0.809544 0.959795 0.606217 0.000000
C103  C     C_R   0.796619 0.945703 0.556941 0.000000
C104  C     C_R   0.802967 0.972126 0.541033 0.000000
C105  C     C_R   0.788374 0.951947 0.489368 0.000000
C106  C     C_R   0.767171 0.906012 0.453943 0.000000
C107  C     C_R   0.762495 0.879377 0.470497 0.000000
C108  C     C_R   0.780068 0.900150 0.523384 0.000000
N36   N     N_R   0.785471 0.880762 0.549357 0.000000
H111  H     H_    0.766405 0.881683 0.669106 0.000000
H112  H     H_    0.730421 0.915808 0.666079 0.000000
H113  H     H_    0.729347 0.876637 0.607405 0.000000
H114  H     H_    0.809100 0.954358 0.708241 0.000000
H115  H     H_    0.848723 0.931277 0.675924 0.000000
H116  H     H_    0.801559 0.878528 0.628966 0.000000
H117  H     H_    0.820343 0.008042 0.567450 0.000000
H118  H     H_    0.795060 0.972085 0.476933 0.000000
H119  H     H_    0.758218 0.891606 0.414515 0.000000
H120  H     H_    0.752141 0.843245 0.443849 0.000000
C109  C     C_3   0.891767 0.926484 0.511056 0.000000
N37   N     N_3   0.889843 0.881357 0.498523 0.000000
C110  C     C_3   0.856757 0.866908 0.504800 0.000000
C111  C     C_R   0.855245 0.822662 0.496223 0.000000
N38   N     N_R   0.883064 0.800037 0.484187 0.000000
C112  C     C_R   0.858852 0.756545 0.458335 0.000000
C113  C     C_R   0.867962 0.718526 0.431953 0.000000
C114  C     C_R   0.840308 0.676724 0.410545 0.000000
C115  C     C_R   0.804450 0.673934 0.415827 0.000000
C116  C     C_R   0.795075 0.712733 0.441317 0.000000
C117  C     C_R   0.821861 0.753878 0.460558 0.000000
N39   N     N_R   0.817339 0.795410 0.483049 0.000000
H121  H     H_    0.918990 0.940614 0.510051 0.000000
H122  H     H_    0.858885 0.924746 0.481776 0.000000
H123  H     H_    0.898872 0.948435 0.550950 0.000000
H124  H     H_    0.872343 0.860918 0.457712 0.000000
H125  H     H_    0.861236 0.892105 0.542945 0.000000
H126  H     H_    0.825059 0.859210 0.470206 0.000000
H127  H     H_    0.895518 0.721225 0.427587 0.000000
H128  H     H_    0.846427 0.645984 0.389564 0.000000
H129  H     H_    0.782982 0.640829 0.398182 0.000000
H130  H     H_    0.765742 0.710091 0.442482 0.000000
C118  C     C_3   0.069508 0.381027 0.647305 0.000000
N40   N     N_3   0.110316 0.407541 0.660296 0.000000
C119  C     C_3   0.130036 0.450677 0.711411 0.000000
C120  C     C_R   0.177485 0.473550 0.732760 0.000000
N41   N     N_R   0.199525 0.453458 0.708096 0.000000
C121  C     C_R   0.229902 0.490342 0.725294 0.000000
C122  C     C_R   0.252677 0.492483 0.703585 0.000000
C123  C     C_R   0.278867 0.533938 0.722709 0.000000
C124  C     C_R   0.278698 0.573223 0.760260 0.000000
C125  C     C_R   0.251651 0.570408 0.777339 0.000000
C126  C     C_R   0.230036 0.528916 0.762518 0.000000
N42   N     N_R   0.198889 0.519747 0.771015 0.000000
H131  H     H_    0.055990 0.347102 0.609924 0.000000
H132  H     H_    0.076941 0.376128 0.678801 0.000000
H133  H     H_    0.044033 0.398512 0.642168 0.000000
H134  H     H_    0.099845 0.415073 0.632300 0.000000
H135  H     H_    0.109906 0.472674 0.705362 0.000000
H136  H     H_    0.130041 0.445368 0.740018 0.000000
H137  H     H_    0.246425 0.463566 0.668426 0.000000
H138  H     H_    0.295977 0.535558 0.704712 0.000000
H139  H     H_    0.295587 0.605831 0.771682 0.000000
H140  H     H_    0.242153 0.599103 0.794532 0.000000
C127  C     C_3   0.193873 0.612335 0.707943 0.000000
N43   N     N_3   0.167635 0.617687 0.730778 0.000000
C128  C     C_3   0.142632 0.573532 0.713104 0.000000
C129  C     C_R   0.121712 0.581882 0.742934 0.000000
N44   N     N_R   0.147772 0.595119 0.794784 0.000000
C130  C     C_R   0.123101 0.614097 0.813641 0.000000
C131  C     C_R   0.133434 0.633725 0.864079 0.000000
C132  C     C_R   0.102312 0.650222 0.874560 0.000000
C133  C     C_R   0.062331 0.647298 0.835037 0.000000
C134  C     C_R   0.053027 0.627848 0.784608 0.000000
C135  C     C_R   0.083838 0.611201 0.774763 0.000000
N45   N     N_R   0.081024 0.590457 0.728591 0.000000
H141  H     H_    0.187960 0.632487 0.691042 0.000000
H142  H     H_    0.230269 0.626914 0.739819 0.000000
H143  H     H_    0.184814 0.575964 0.677007 0.000000
H144  H     H_    0.144605 0.632977 0.718046 0.000000
H145  H     H_    0.117306 0.551685 0.670710 0.000000
H146  H     H_    0.165283 0.554724 0.720999 0.000000
H147  H     H_    0.165220 0.637448 0.895031 0.000000
H148  H     H_    0.109404 0.666005 0.913921 0.000000
H149  H     H_    0.038614 0.660835 0.844044 0.000000
H150  H     H_    0.023158 0.626638 0.754243 0.000000
C136  C     C_3   0.329245 0.497373 0.808604 0.000000
N46   N     N_3   0.340787 0.459060 0.809174 0.000000
C137  C     C_3   0.304740 0.418248 0.759719 0.000000
C138  C     C_R   0.303267 0.415476 0.715509 0.000000
N47   N     N_R   0.341677 0.429924 0.718561 0.000000
C139  C     C_R   0.323102 0.422075 0.670065 0.000000
C140  C     C_R   0.344235 0.433626 0.651234 0.000000
C141  C     C_R   0.317820 0.422741 0.600196 0.000000
C142  C     C_R   0.271187 0.401673 0.569386 0.000000
C143  C     C_R   0.250103 0.391884 0.589529 0.000000
C144  C     C_R   0.276876 0.402463 0.639890 0.000000
N48   N     N_R   0.262866 0.400336 0.668647 0.000000
H151  H     H_    0.332512 0.500792 0.780595 0.000000
H152  H     H_    0.295523 0.494555 0.799600 0.000000
H153  H     H_    0.350999 0.528744 0.847663 0.000000
H154  H     H_    0.339971 0.460402 0.839234 0.000000
H155  H     H_    0.310926 0.388052 0.758972 0.000000
H156  H     H_    0.271739 0.418303 0.754957 0.000000
H157  H     H_    0.380217 0.450672 0.674965 0.000000
H158  H     H_    0.333660 0.430995 0.584245 0.000000
H159  H     H_    0.251134 0.393749 0.529791 0.000000
H160  H     H_    0.213784 0.376744 0.566593 0.000000
C145  C     C_3   0.536522 0.599618 0.864075 0.000000
N49   N     N_3   0.528754 0.554650 0.853757 0.000000
C146  C     C_3   0.513059 0.522240 0.798912 0.000000
C147  C     C_R   0.501264 0.474047 0.781591 0.000000
N50   N     N_R   0.520682 0.448076 0.756188 0.000000
C148  C     C_R   0.484142 0.413052 0.709641 0.000000
C149  C     C_R   0.482035 0.379238 0.665492 0.000000
C150  C     C_R   0.441311 0.344332 0.623424 0.000000
C151  C     C_R   0.404143 0.343021 0.626814 0.000000
C152  C     C_R   0.406904 0.377588 0.671357 0.000000
C153  C     C_R   0.446612 0.413682 0.711114 0.000000
N51   N     N_R   0.456125 0.451058 0.757004 0.000000
H161  H     H_    0.568780 0.623462 0.902989 0.000000
H162  H     H_    0.539272 0.598999 0.833456 0.000000
H163  H     H_    0.507927 0.611398 0.863795 0.000000
H164  H     H_    0.503028 0.548544 0.858411 0.000000
H165  H     H_    0.482639 0.526601 0.773165 0.000000
H166  H     H_    0.539925 0.528266 0.792905 0.000000
H167  H     H_    0.511062 0.378842 0.663267 0.000000
H168  H     H_    0.438934 0.317098 0.588530 0.000000
H169  H     H_    0.372933 0.314645 0.594689 0.000000
H170  H     H_    0.378621 0.375501 0.674489 0.000000
C154  C     C_3   0.647599 0.138357 0.794729 0.000000
N52   N     N_3   0.650269 0.180885 0.835926 0.000000
C155  C     C_3   0.664551 0.217306 0.833072 0.000000
C156  C     C_R   0.664840 0.259926 0.873717 0.000000
N53   N     N_R   0.629237 0.276273 0.860243 0.000000
C157  C     C_R   0.631070 0.299900 0.905678 0.000000
C158  C     C_R   0.603925 0.324875 0.915072 0.000000
C159  C     C_R   0.612378 0.348392 0.965337 0.000000
C160  C     C_R   0.649192 0.349035 0.005675 0.000000
C161  C     C_R   0.677568 0.325822 0.996008 0.000000
C162  C     C_R   0.667023 0.299709 0.944881 0.000000
N54   N     N_R   0.691345 0.276691 0.927018 0.000000
H171  H     H_    0.636428 0.110365 0.796409 0.000000
H172  H     H_    0.622777 0.131119 0.755259 0.000000
H173  H     H_    0.681447 0.140648 0.801475 0.000000
H174  H     H_    0.675147 0.187367 0.872376 0.000000
H175  H     H_    0.698399 0.220839 0.840131 0.000000
H176  H     H_    0.639971 0.209461 0.793416 0.000000
H177  H     H_    0.577189 0.326919 0.884630 0.000000
H178  H     H_    0.591164 0.367639 0.973776 0.000000
H179  H     H_    0.656903 0.369379 0.045508 0.000000
H180  H     H_    0.708692 0.330645 0.028760 0.000000
C163  C     C_3   0.729806 0.321358 0.824136 0.000000
N55   N     N_3   0.697531 0.275765 0.783838 0.000000
C164  C     C_3   0.654525 0.281629 0.770134 0.000000
C165  C     C_R   0.617523 0.238063 0.728614 0.000000
N56   N     N_R   0.608799 0.208816 0.678783 0.000000
C166  C     C_R   0.563595 0.186981 0.649529 0.000000
C167  C     C_R   0.534476 0.157771 0.595326 0.000000
C168  C     C_R   0.488831 0.141582 0.574051 0.000000
C169  C     C_R   0.472903 0.155453 0.606670 0.000000
C170  C     C_R   0.502466 0.185843 0.661085 0.000000
C171  C     C_R   0.547606 0.200610 0.681227 0.000000
N57   N     N_R   0.581190 0.232681 0.731573 0.000000
H181  H     H_    0.763484 0.320364 0.832127 0.000000
H182  H     H_    0.720852 0.343558 0.810788 0.000000
H183  H     H_    0.728322 0.336321 0.859263 0.000000
H184  H     H_    0.701850 0.258743 0.801817 0.000000
H185  H     H_    0.653292 0.296786 0.805446 0.000000
H186  H     H_    0.649482 0.303999 0.756410 0.000000
H187  H     H_    0.546327 0.147404 0.569763 0.000000
H188  H     H_    0.465273 0.118251 0.531538 0.000000
H189  H     H_    0.437097 0.142911 0.589349 0.000000
H190  H     H_    0.490223 0.197611 0.686535 0.000000
C172  C     C_3   0.546047 0.281948 0.636218 0.000000
N58   N     N_3   0.576689 0.305017 0.693219 0.000000
C173  C     C_3   0.551193 0.322590 0.716440 0.000000
C174  C     C_R   0.581631 0.354281 0.775430 0.000000
N59   N     N_R   0.596683 0.338704 0.807508 0.000000
C175  C     C_R   0.628731 0.376497 0.854888 0.000000
C176  C     C_R   0.665400 0.377667 0.895118 0.000000
C177  C     C_R   0.701019 0.417420 0.935148 0.000000
C178  C     C_R   0.700115 0.455421 0.935085 0.000000
C179  C     C_R   0.664179 0.453962 0.894088 0.000000
C180  C     C_R   0.628986 0.413594 0.852826 0.000000
N60   N     N_R   0.598485 0.401271 0.802866 0.000000
H191  H     H_    0.561134 0.260111 0.616289 0.000000
H192  H     H_    0.513306 0.260130 0.621529 0.000000
H193  H     H_    0.540390 0.307446 0.626672 0.000000
H194  H     H_    0.601564 0.332710 0.707024 0.000000
H195  H     H_    0.533604 0.341460 0.701294 0.000000
H196  H     H_    0.526567 0.293671 0.705152 0.000000
H197  H     H_    0.671187 0.347718 0.891956 0.000000
H198  H     H_    0.731899 0.417650 0.963298 0.000000
H199  H     H_    0.730680 0.483926 0.962744 0.000000
H200  H     H_    0.669328 0.481508 0.891555 0.000000
C181  C     C_3   0.781897 0.161869 0.406200 0.000000
N61   N     N_3   0.733306 0.139135 0.375104 0.000000
C182  C     C_3   0.713219 0.129885 0.322795 0.000000
C183  C     C_R   0.663758 0.119159 0.296489 0.000000
N62   N     N_R   0.637121 0.080945 0.284235 0.000000
C184  C     C_R   0.597095 0.088685 0.269675 0.000000
C185  C     C_R   0.557179 0.062394 0.253383 0.000000
C186  C     C_R   0.520501 0.077601 0.242163 0.000000
C187  C     C_R   0.524136 0.118774 0.247522 0.000000
C188  C     C_R   0.564356 0.144827 0.263329 0.000000
C189  C     C_R   0.600021 0.128715 0.273118 0.000000
N63   N     N_R   0.641447 0.148828 0.288295 0.000000
H201  H     H_    0.800019 0.145744 0.425293 0.000000
H202  H     H_    0.793419 0.160934 0.381373 0.000000
H203  H     H_    0.791433 0.196644 0.439922 0.000000
H204  H     H_    0.720261 0.162135 0.393649 0.000000
H205  H     H_    0.726730 0.159821 0.326892 0.000000
H206  H     H_    0.720789 0.101450 0.298437 0.000000
H207  H     H_    0.553706 0.030353 0.247939 0.000000
H208  H     H_    0.488689 0.057141 0.229003 0.000000
H209  H     H_    0.495186 0.130194 0.238589 0.000000
H210  H     H_    0.567315 0.176307 0.266378 0.000000
C190  C     C_3   0.792911 0.280049 0.459269 0.000000
N64   N     N_3   0.770072 0.241777 0.404042 0.000000
C191  C     C_3   0.793863 0.246771 0.381709 0.000000
C192  C     C_R   0.764799 0.218124 0.322158 0.000000
N65   N     N_R   0.782439 0.201953 0.291502 0.000000
C193  C     C_R   0.744039 0.176723 0.241770 0.000000
C194  C     C_R   0.739350 0.148532 0.194497 0.000000
C195  C     C_R   0.696849 0.127051 0.147951 0.000000
C196  C     C_R   0.658887 0.127065 0.149600 0.000000
C197  C     C_R   0.664205 0.150109 0.198056 0.000000
C198  C     C_R   0.706799 0.176476 0.242831 0.000000
N66   N     N_R   0.717764 0.204055 0.292273 0.000000
H211  H     H_    0.787453 0.269143 0.481461 0.000000
H212  H     H_    0.829783 0.292903 0.477597 0.000000
H213  H     H_    0.777930 0.307045 0.461659 0.000000
H214  H     H_    0.736815 0.240135 0.383614 0.000000
H215  H     H_    0.806764 0.282802 0.397758 0.000000
H216  H     H_    0.822495 0.234808 0.393882 0.000000
H217  H     H_    0.766933 0.138580 0.193839 0.000000
H218  H     H_    0.693212 0.104939 0.110536 0.000000
H219  H     H_    0.625546 0.106444 0.113438 0.000000
H220  H     H_    0.636054 0.146267 0.200855 0.000000
C199  C     C_3   0.778949 0.666747 0.139264 0.000000
N67   N     N_3   0.767035 0.661854 0.090578 0.000000
C200  C     C_3   0.794340 0.702537 0.104248 0.000000
C201  C     C_R   0.770751 0.715144 0.065775 0.000000
N68   N     N_R   0.761752 0.690129 0.014985 0.000000
C202  C     C_R   0.750188 0.718148 0.999614 0.000000
C203  C     C_R   0.738479 0.710878 0.952324 0.000000
C204  C     C_R   0.738538 0.747977 0.949390 0.000000
C205  C     C_R   0.753033 0.791201 0.994369 0.000000
C206  C     C_R   0.763103 0.796836 0.040754 0.000000
C207  C     C_R   0.755790 0.758913 0.040171 0.000000
N69   N     N_R   0.765173 0.757574 0.081626 0.000000
H221  H     H_    0.758193 0.636231 0.129730 0.000000
H222  H     H_    0.814837 0.671213 0.162396 0.000000
H223  H     H_    0.772586 0.696279 0.163770 0.000000
H224  H     H_    0.732955 0.657069 0.069442 0.000000
H225  H     H_    0.803804 0.730782 0.143276 0.000000
H226  H     H_    0.825629 0.697246 0.106698 0.000000
H227  H     H_    0.732873 0.678308 0.919898 0.000000
H228  H     H_    0.731191 0.743852 0.913446 0.000000
H229  H     H_    0.757731 0.820701 0.993628 0.000000
H230  H     H_    0.780288 0.830013 0.077535 0.000000
C208  C     C_3   0.890331 0.827603 0.147937 0.000000
N70   N     N_3   0.872473 0.835782 0.179997 0.000000
C209  C     C_3   0.883349 0.807978 0.200287 0.000000
C210  C     C_R   0.862987 0.812496 0.230876 0.000000
N71   N     N_R   0.817502 0.807621 0.211519 0.000000
C211  C     C_R   0.810865 0.792907 0.237554 0.000000
C212  C     C_R   0.771730 0.779242 0.232104 0.000000
C213  C     C_R   0.769272 0.753511 0.250720 0.000000
C214  C     C_R   0.807365 0.745967 0.279208 0.000000
C215  C     C_R   0.848143 0.764796 0.289923 0.000000
C216  C     C_R   0.849131 0.788970 0.269416 0.000000
N72   N     N_R   0.883989 0.805890 0.270823 0.000000
H231  H     H_    0.883140 0.849641 0.133415 0.000000
H232  H     H_    0.927478 0.835901 0.172254 0.000000
H233  H     H_    0.873138 0.791861 0.112799 0.000000
H234  H     H_    0.837460 0.824946 0.154795 0.000000
H235  H     H_    0.871146 0.772185 0.166987 0.000000
H236  H     H_    0.920277 0.817107 0.225778 0.000000
H237  H     H_    0.744522 0.790249 0.216282 0.000000
H238  H     H_    0.737647 0.739889 0.243842 0.000000
H239  H     H_    0.805364 0.725925 0.293727 0.000000
H240  H     H_    0.877148 0.757679 0.310796 0.000000
C217  C     C_3   0.878059 0.933022 0.209226 0.000000
N73   N     N_3   0.886545 0.946149 0.260153 0.000000
C218  C     C_3   0.851349 0.918669 0.255320 0.000000
C219  C     C_R   0.806982 0.917666 0.220506 0.000000
N74   N     N_R   0.777699 0.877817 0.170494 0.000000
C220  C     C_R   0.758206 0.894825 0.141368 0.000000
C221  C     C_R   0.726641 0.871876 0.087677 0.000000
C222  C     C_R   0.716990 0.896439 0.065635 0.000000
C223  C     C_R   0.739478 0.942985 0.097123 0.000000
C224  C     C_R   0.768948 0.965767 0.151448 0.000000
C225  C     C_R   0.774891 0.941386 0.172779 0.000000
N75   N     N_R   0.803367 0.957226 0.223966 0.000000
H241  H     H_    0.909724 0.931546 0.210690 0.000000
H242  H     H_    0.851173 0.899894 0.175713 0.000000
H243  H     H_    0.867852 0.958933 0.201774 0.000000
H244  H     H_    0.888484 0.979852 0.279814 0.000000
H245  H     H_    0.851487 0.884217 0.238194 0.000000
H246  H     H_    0.857420 0.931239 0.294076 0.000000
H247  H     H_    0.709934 0.835639 0.063188 0.000000
H248  H     H_    0.693109 0.878953 0.023336 0.000000
H249  H     H_    0.733943 0.961476 0.079176 0.000000
H250  H     H_    0.789787 0.000712 0.176057 0.000000
C226  C     C_3   0.778318 0.351434 0.777947 0.000000
N76   N     N_3   0.740374 0.340216 0.727934 0.000000
C227  C     C_3   0.698801 0.316241 0.714929 0.000000
C228  C     C_R   0.665996 0.291396 0.657680 0.000000
N77   N     N_R   0.654934 0.309668 0.628050 0.000000
C229  C     C_R   0.625148 0.271682 0.578495 0.000000
C230  C     C_R   0.609698 0.264833 0.530585 0.000000
C231  C     C_R   0.577082 0.223808 0.484631 0.000000
C232  C     C_R   0.562039 0.189564 0.487129 0.000000
C233  C     C_R   0.583049 0.194499 0.535101 0.000000
C234  C     C_R   0.616545 0.235085 0.579678 0.000000
N78   N     N_R   0.644378 0.245418 0.628703 0.000000
H251  H     H_    0.780698 0.320307 0.776628 0.000000
H252  H     H_    0.809546 0.367827 0.784840 0.000000
H253  H     H_    0.775752 0.375485 0.810970 0.000000
H254  H     H_    0.744949 0.315771 0.699620 0.000000
H255  H     H_    0.703935 0.290388 0.723337 0.000000
H256  H     H_    0.685483 0.338822 0.736378 0.000000
H257  H     H_    0.625440 0.288350 0.527970 0.000000
H258  H     H_    0.564012 0.218088 0.446507 0.000000
H259  H     H_    0.536667 0.157519 0.451021 0.000000
H260  H     H_    0.575138 0.166214 0.536365 0.000000
C235  C     C_3   0.679454 0.530346 0.686766 0.000000
N79   N     N_3   0.705760 0.499933 0.687071 0.000000
C236  C     C_3   0.718352 0.498481 0.732306 0.000000
C237  C     C_R   0.746765 0.469255 0.735321 0.000000
N80   N     N_R   0.793313 0.486359 0.770830 0.000000
C238  C     C_R   0.803907 0.447676 0.757428 0.000000
C239  C     C_R   0.845820 0.442984 0.778455 0.000000
C240  C     C_R   0.849075 0.400658 0.750814 0.000000
C241  C     C_R   0.811521 0.364324 0.703426 0.000000
C242  C     C_R   0.769451 0.369310 0.684419 0.000000
C243  C     C_R   0.766324 0.410504 0.714443 0.000000
N81   N     N_R   0.729079 0.422403 0.701186 0.000000
H261  H     H_    0.645435 0.511391 0.649251 0.000000
H262  H     H_    0.675754 0.544687 0.720555 0.000000
H263  H     H_    0.696715 0.558641 0.689765 0.000000
H264  H     H_    0.735462 0.514191 0.692905 0.000000
H265  H     H_    0.737965 0.532770 0.769535 0.000000
H266  H     H_    0.687487 0.484429 0.727707 0.000000
H267  H     H_    0.875650 0.471247 0.813763 0.000000
H268  H     H_    0.881390 0.396336 0.764276 0.000000
H269  H     H_    0.815335 0.332359 0.681112 0.000000
H270  H     H_    0.739823 0.341370 0.647657 0.000000
C244  C     C_3   0.717340 0.430197 0.837847 0.000000
N82   N     N_3   0.671544 0.415427 0.793657 0.000000
C245  C     C_3   0.673677 0.419498 0.755671 0.000000
C246  C     C_R   0.628359 0.409534 0.712040 0.000000
N83   N     N_R   0.624565 0.402939 0.668164 0.000000
C247  C     C_R   0.593024 0.421697 0.652693 0.000000
C248  C     C_R   0.583001 0.433890 0.618179 0.000000
C249  C     C_R   0.552669 0.457336 0.612479 0.000000
C250  C     C_R   0.534878 0.470346 0.643111 0.000000
C251  C     C_R   0.547973 0.460832 0.680557 0.000000
C252  C     C_R   0.576698 0.435917 0.684008 0.000000
N84   N     N_R   0.597558 0.427716 0.721430 0.000000
H271  H     H_    0.718483 0.412981 0.857126 0.000000
H272  H     H_    0.739546 0.422075 0.823612 0.000000
H273  H     H_    0.728803 0.467374 0.867287 0.000000
H274  H     H_    0.659672 0.441337 0.809129 0.000000
H275  H     H_    0.692365 0.454738 0.775252 0.000000
H276  H     H_    0.691056 0.398439 0.739547 0.000000
H277  H     H_    0.600069 0.428344 0.598446 0.000000
H278  H     H_    0.544182 0.467196 0.585462 0.000000
H279  H     H_    0.512395 0.489968 0.639506 0.000000
H280  H     H_    0.537112 0.474176 0.707284 0.000000
C253  C     C_3   0.833228 0.448080 0.682339 0.000000
N85   N     N_3   0.836697 0.492058 0.722034 0.000000
C254  C     C_3   0.852071 0.524782 0.715637 0.000000
C255  C     C_R   0.844974 0.567045 0.743371 0.000000
N86   N     N_R   0.832939 0.576388 0.778518 0.000000
C256  C     C_R   0.810996 0.605889 0.775280 0.000000
C257  C     C_R   0.781843 0.617671 0.791185 0.000000
C258  C     C_R   0.760824 0.647238 0.783407 0.000000
C259  C     C_R   0.766084 0.661607 0.755811 0.000000
C260  C     C_R   0.790711 0.645032 0.734199 0.000000
C261  C     C_R   0.813624 0.616728 0.743947 0.000000
N87   N     N_R   0.835120 0.591793 0.722133 0.000000
H281  H     H_    0.814252 0.420659 0.677960 0.000000
H282  H     H_    0.812714 0.442210 0.643608 0.000000
H283  H     H_    0.867338 0.445820 0.693324 0.000000
H284  H     H_    0.862803 0.500114 0.758567 0.000000
H285  H     H_    0.888077 0.531449 0.730337 0.000000
H286  H     H_    0.831128 0.512785 0.673841 0.000000
H287  H     H_    0.773143 0.602959 0.807198 0.000000
H288  H     H_    0.738657 0.657440 0.796774 0.000000
H289  H     H_    0.748228 0.683505 0.747800 0.000000
H290  H     H_    0.788637 0.653799 0.708721 0.000000
C262  C     C_3   0.962691 0.669859 0.761109 0.000000
N88   N     N_3   0.925199 0.654083 0.708257 0.000000
C263  C     C_3   0.933711 0.624445 0.668429 0.000000
C264  C     C_R   0.932208 0.580117 0.661659 0.000000
N89   N     N_R   0.900011 0.556201 0.660550 0.000000
C265  C     C_R   0.918027 0.523047 0.662726 0.000000
C266  C     C_R   0.901422 0.484968 0.657998 0.000000
C267  C     C_R   0.926514 0.456514 0.661687 0.000000
C268  C     C_R   0.968271 0.465413 0.669480 0.000000
C269  C     C_R   0.984225 0.502027 0.671531 0.000000
C270  C     C_R   0.957391 0.528181 0.665335 0.000000
N90   N     N_R   0.966006 0.561647 0.661208 0.000000
H291  H     H_    0.957229 0.696150 0.790652 0.000000
H292  H     H_    0.963991 0.641327 0.765656 0.000000
H293  H     H_    0.994843 0.685771 0.769010 0.000000
H294  H     H_    0.923885 0.682877 0.707680 0.000000
H295  H     H_    0.907108 0.618058 0.630521 0.000000
H296  H     H_    0.967084 0.641149 0.679635 0.000000
H297  H     H_    0.868044 0.474178 0.646599 0.000000
H298  H     H_    0.912626 0.426070 0.656609 0.000000
H299  H     H_    0.986877 0.442217 0.670590 0.000000
H300  H     H_    0.015897 0.508481 0.675146 0.000000
C271  C     C_3   0.903557 0.379299 0.500679 0.000000
N91   N     N_3   0.942324 0.399065 0.504960 0.000000
C272  C     C_3   0.972772 0.437543 0.559540 0.000000
C273  C     C_R   0.006875 0.465819 0.563437 0.000000
N92   N     N_R   0.022864 0.447503 0.530961 0.000000
C274  C     C_R   0.047426 0.485841 0.543521 0.000000
C275  C     C_R   0.075003 0.489548 0.527503 0.000000
C276  C     C_R   0.103407 0.531683 0.551519 0.000000
C277  C     C_R   0.102596 0.569930 0.589680 0.000000
C278  C     C_R   0.073098 0.566368 0.603426 0.000000
C279  C     C_R   0.046511 0.523821 0.580835 0.000000
N93   N     N_R   0.021575 0.513229 0.595562 0.000000
H301  H     H_    0.877511 0.394104 0.487049 0.000000
H302  H     H_    0.890049 0.341946 0.471296 0.000000
H303  H     H_    0.913264 0.386341 0.539435 0.000000
H304  H     H_    0.930397 0.411598 0.481671 0.000000
H305  H     H_    0.952969 0.458302 0.571491 0.000000
H306  H     H_    0.989899 0.425633 0.585251 0.000000
H307  H     H_    0.081160 0.460643 0.504603 0.000000
H308  H     H_    0.127834 0.534548 0.542236 0.000000
H309  H     H_    0.126059 0.602833 0.609951 0.000000
H310  H     H_    0.076885 0.595881 0.637016 0.000000
C280  C     C_3   0.633551 0.573162 0.785970 0.000000
N94   N     N_3   0.680331 0.577053 0.818021 0.000000
C281  C     C_3   0.681397 0.536905 0.818973 0.000000
C282  C     C_R   0.673826 0.541087 0.859173 0.000000
N95   N     N_R   0.698093 0.579108 0.911357 0.000000
C283  C     C_R   0.668225 0.577931 0.924523 0.000000
C284  C     C_R   0.669571 0.610892 0.967990 0.000000
C285  C     C_R   0.638336 0.600001 0.976784 0.000000
C286  C     C_R   0.606767 0.556681 0.942426 0.000000
C287  C     C_R   0.603437 0.525135 0.896126 0.000000
C288  C     C_R   0.632679 0.538286 0.886634 0.000000
N96   N     N_R   0.634663 0.513527 0.844118 0.000000
H311  H     H_    0.632529 0.606212 0.791274 0.000000
H312  H     H_    0.619038 0.546762 0.743495 0.000000
H313  H     H_    0.613144 0.564494 0.798310 0.000000
H314  H     H_    0.694613 0.605615 0.856395 0.000000
H315  H     H_    0.654417 0.507128 0.779568 0.000000
H316  H     H_    0.714075 0.532430 0.827590 0.000000
H317  H     H_    0.692555 0.644771 0.993004 0.000000
H318  H     H_    0.638798 0.625249 0.010895 0.000000
H319  H     H_    0.583185 0.548596 0.950572 0.000000
H320  H     H_    0.578559 0.491488 0.868291 0.000000
C289  C     C_3   0.359291 0.404276 0.983704 0.000000
N97   N     N_3   0.396525 0.430836 0.039329 0.000000
C290  C     C_3   0.421714 0.401949 0.049006 0.000000
C291  C     C_R   0.401865 0.373756 0.058767 0.000000
N98   N     N_R   0.394491 0.390293 0.098778 0.000000
C292  C     C_R   0.381353 0.352123 0.094609 0.000000
C293  C     C_R   0.371090 0.348061 0.125838 0.000000
C294  C     C_R   0.363457 0.306305 0.118462 0.000000
C295  C     C_R   0.367399 0.269889 0.081244 0.000000
C296  C     C_R   0.377921 0.274844 0.050357 0.000000
C297  C     C_R   0.383089 0.315868 0.056660 0.000000
N99   N     N_R   0.395722 0.327835 0.032634 0.000000
H321  H     H_    0.344957 0.427117 0.973050 0.000000
H322  H     H_    0.370603 0.385510 0.957104 0.000000
H323  H     H_    0.332471 0.381122 0.976860 0.000000
H324  H     H_    0.383287 0.440725 0.062204 0.000000
H325  H     H_    0.419200 0.377114 0.013040 0.000000
H326  H     H_    0.457560 0.422235 0.081639 0.000000
H327  H     H_    0.372345 0.377054 0.157939 0.000000
H328  H     H_    0.355869 0.302490 0.143125 0.000000
H329  H     H_    0.363181 0.237886 0.077172 0.000000
H330  H     H_    0.384326 0.248159 0.024293 0.000000
C298  C     C_3   0.309659 0.470141 0.035300 0.000000
N100  N     N_3   0.318315 0.462393 0.074687 0.000000
C299  C     C_3   0.299749 0.415065 0.050813 0.000000
C300  C     C_R   0.296735 0.413481 0.089559 0.000000
N101  N     N_R   0.333892 0.430433 0.139035 0.000000
C301  C     C_R   0.315615 0.421400 0.160888 0.000000
C302  C     C_R   0.337693 0.428625 0.209806 0.000000
C303  C     C_R   0.311947 0.412906 0.221962 0.000000
C304  C     C_R   0.265527 0.390042 0.185256 0.000000
C305  C     C_R   0.243874 0.383071 0.136032 0.000000
C306  C     C_R   0.269696 0.399997 0.125228 0.000000
N102  N     N_R   0.256282 0.397145 0.080295 0.000000
H331  H     H_    0.293810 0.437802 0.995985 0.000000
H332  H     H_    0.287420 0.490956 0.034795 0.000000
H333  H     H_    0.342424 0.489287 0.047591 0.000000
H334  H     H_    0.299421 0.477496 0.089171 0.000000
H335  H     H_    0.265386 0.400543 0.016971 0.000000
H336  H     H_    0.320710 0.395540 0.040535 0.000000
H337  H     H_    0.373891 0.445433 0.237552 0.000000
H338  H     H_    0.328197 0.417797 0.260041 0.000000
H339  H     H_    0.246171 0.377359 0.195167 0.000000
H340  H     H_    0.208063 0.364465 0.107038 0.000000
C307  C     C_3   0.441070 0.355125 0.253634 0.000000
N103  N     N_3   0.437968 0.392037 0.246772 0.000000
C308  C     C_3   0.470986 0.399282 0.235713 0.000000
C309  C     C_R   0.482952 0.446617 0.251093 0.000000
N104  N     N_R   0.451420 0.465294 0.231682 0.000000
C310  C     C_R   0.472083 0.509773 0.271596 0.000000
C311  C     C_R   0.453995 0.543926 0.276301 0.000000
C312  C     C_R   0.480552 0.587581 0.321402 0.000000
C313  C     C_R   0.523849 0.595844 0.360925 0.000000
C314  C     C_R   0.541114 0.560647 0.355826 0.000000
C315  C     C_R   0.514610 0.517676 0.310267 0.000000
N105  N     N_R   0.523698 0.478391 0.297513 0.000000
H341  H     H_    0.412751 0.345698 0.256005 0.000000
H342  H     H_    0.438743 0.325090 0.219353 0.000000
H343  H     H_    0.473516 0.365993 0.290773 0.000000
H344  H     H_    0.446464 0.421435 0.282481 0.000000
H345  H     H_    0.502246 0.395507 0.260399 0.000000
H346  H     H_    0.457598 0.374214 0.193751 0.000000
H347  H     H_    0.419394 0.536570 0.247047 0.000000
H348  H     H_    0.467129 0.615223 0.326543 0.000000
H349  H     H_    0.543804 0.629893 0.396599 0.000000
H350  H     H_    0.573704 0.567058 0.387598 0.000000
C316  C     C_3   0.358951 0.609546 0.242305 0.000000
N106  N     N_3   0.389315 0.599324 0.224670 0.000000
C317  C     C_3   0.365165 0.556176 0.172769 0.000000
C318  C     C_R   0.397720 0.542010 0.157747 0.000000
N107  N     N_R   0.412777 0.506585 0.157996 0.000000
C319  C     C_R   0.452642 0.517832 0.164846 0.000000
C320  C     C_R   0.484524 0.497395 0.174488 0.000000
C321  C     C_R   0.524669 0.514610 0.182895 0.000000
C322  C     C_R   0.533742 0.554784 0.187326 0.000000
C323  C     C_R   0.502625 0.577391 0.182824 0.000000
C324  C     C_R   0.460398 0.556149 0.166627 0.000000
N108  N     N_R   0.424302 0.570664 0.157576 0.000000
H351  H     H_    0.326659 0.606905 0.211034 0.000000
H352  H     H_    0.374895 0.644732 0.278745 0.000000
H353  H     H_    0.352341 0.585407 0.251297 0.000000
H354  H     H_    0.397528 0.624495 0.220381 0.000000
H355  H     H_    0.350891 0.530436 0.175451 0.000000
H356  H     H_    0.337783 0.559687 0.142957 0.000000
H357  H     H_    0.477943 0.468512 0.174933 0.000000
H358  H     H_    0.549926 0.498132 0.188816 0.000000
H359  H     H_    0.566169 0.569455 0.196733 0.000000
H360  H     H_    0.513223 0.612098 0.196709 0.000000
C325  C     C_3   0.386819 0.154615 0.817573 0.000000
N109  N     N_3   0.392163 0.198151 0.860641 0.000000
C326  C     C_3   0.369742 0.225071 0.842471 0.000000
C327  C     C_R   0.398737 0.273487 0.881879 0.000000
N110  N     N_R   0.418421 0.294841 0.935549 0.000000
C328  C     C_R   0.447715 0.334254 0.955925 0.000000
C329  C     C_R   0.483640 0.366366 0.006991 0.000000
C330  C     C_R   0.501457 0.408523 0.019858 0.000000
C331  C     C_R   0.481509 0.417617 0.981946 0.000000
C332  C     C_R   0.449525 0.382586 0.929749 0.000000
C333  C     C_R   0.439534 0.339314 0.917145 0.000000
N111  N     N_R   0.412094 0.299891 0.869058 0.000000
H361  H     H_    0.416287 0.144205 0.834002 0.000000
H362  H     H_    0.356482 0.127993 0.800790 0.000000
H363  H     H_    0.385212 0.156542 0.786147 0.000000
H364  H     H_    0.426701 0.216381 0.888296 0.000000
H365  H     H_    0.363943 0.214999 0.804201 0.000000
H366  H     H_    0.337633 0.221882 0.839787 0.000000
H367  H     H_    0.496735 0.360331 0.036760 0.000000
H368  H     H_    0.527887 0.435408 0.060446 0.000000
H369  H     H_    0.490882 0.451954 0.993176 0.000000
H370  H     H_    0.430700 0.389980 0.901209 0.000000
C334  C     C_3   0.506076 0.398210 0.163019 0.000000
N112  N     N_3   0.504646 0.351630 0.143472 0.000000
C335  C     C_3   0.500207 0.333410 0.094060 0.000000
C336  C     C_R   0.492648 0.284948 0.065809 0.000000
N113  N     N_R   0.525323 0.266093 0.082135 0.000000
C337  C     C_R   0.507298 0.223758 0.037398 0.000000
C338  C     C_R   0.524947 0.189129 0.030157 0.000000
C339  C     C_R   0.501141 0.148033 0.980810 0.000000
C340  C     C_R   0.460144 0.142226 0.940020 0.000000
C341  C     C_R   0.442329 0.177274 0.948251 0.000000
C342  C     C_R   0.466366 0.217934 0.997488 0.000000
N114  N     N_R   0.455648 0.256420 0.014339 0.000000
H371  H     H_    0.526503 0.420012 0.206380 0.000000
H372  H     H_    0.519937 0.412095 0.148439 0.000000
H373  H     H_    0.472108 0.399082 0.150427 0.000000
H374  H     H_    0.474846 0.333816 0.134366 0.000000
H375  H     H_    0.471661 0.338991 0.069293 0.000000
H376  H     H_    0.529439 0.349785 0.098725 0.000000
H377  H     H_    0.555402 0.193212 0.062576 0.000000
H378  H     H_    0.514221 0.120071 0.974228 0.000000
H379  H     H_    0.441505 0.109754 0.901772 0.000000
H380  H     H_    0.409597 0.171670 0.917270 0.000000
C343  C     C_3   0.276405 0.306332 0.858541 0.000000
N115  N     N_3   0.265065 0.296483 0.887861 0.000000
C344  C     C_3   0.303636 0.290485 0.922952 0.000000
C345  C     C_R   0.299106 0.241805 0.902305 0.000000
N116  N     N_R   0.336912 0.231050 0.925072 0.000000
C346  C     C_R   0.318622 0.190558 0.913802 0.000000
C347  C     C_R   0.340169 0.167029 0.933878 0.000000
C348  C     C_R   0.314055 0.129025 0.922069 0.000000
C349  C     C_R   0.267231 0.116279 0.892803 0.000000
C350  C     C_R   0.246014 0.141404 0.874926 0.000000
C351  C     C_R   0.272391 0.177600 0.884709 0.000000
N117  N     N_R   0.258612 0.208430 0.875113 0.000000
H381  H     H_    0.244715 0.296648 0.821709 0.000000
H382  H     H_    0.293822 0.343130 0.881631 0.000000
H383  H     H_    0.297445 0.286450 0.848659 0.000000
H384  H     H_    0.238308 0.266259 0.859796 0.000000
H385  H     H_    0.335343 0.307380 0.930872 0.000000
H386  H     H_    0.306656 0.306866 0.961201 0.000000
H387  H     H_    0.376186 0.178810 0.960757 0.000000
H388  H     H_    0.330362 0.110180 0.937627 0.000000
H389  H     H_    0.247299 0.087436 0.885418 0.000000
H390  H     H_    0.209955 0.133320 0.855256 0.000000
C352  C     C_3   0.227794 0.558284 0.156791 0.000000
N118  N     N_3   0.198830 0.526169 0.099300 0.000000
C353  C     C_3   0.228119 0.508782 0.081839 0.000000
C354  C     C_R   0.203266 0.475757 0.023025 0.000000
N119  N     N_R   0.200155 0.430457 0.000101 0.000000
C355  C     C_R   0.197959 0.419130 0.955810 0.000000
C356  C     C_R   0.208387 0.383729 0.926172 0.000000
C357  C     C_R   0.208682 0.380495 0.885779 0.000000
C358  C     C_R   0.199928 0.412812 0.876059 0.000000
C359  C     C_R   0.193414 0.449905 0.908116 0.000000
C360  C     C_R   0.193996 0.453405 0.949206 0.000000
N120  N     N_R   0.197563 0.490339 0.991131 0.000000
H391  H     H_    0.207561 0.562975 0.173844 0.000000
H392  H     H_    0.254540 0.545750 0.174553 0.000000
H393  H     H_    0.243785 0.591582 0.167298 0.000000
H394  H     H_    0.186066 0.545516 0.084829 0.000000
H395  H     H_    0.254304 0.537572 0.095105 0.000000
H396  H     H_    0.245120 0.491194 0.099876 0.000000
H397  H     H_    0.219971 0.360240 0.935299 0.000000
H398  H     H_    0.217629 0.353675 0.863063 0.000000
H399  H     H_    0.205228 0.412702 0.848459 0.000000
H400  H     H_    0.193735 0.476889 0.903496 0.000000
C361  C     C_3   0.250318 0.267589 0.039821 0.000000
N121  N     N_3   0.214493 0.268842 0.997377 0.000000
C362  C     C_3   0.233508 0.280926 0.974550 0.000000
C363  C     C_R   0.197847 0.286945 0.935036 0.000000
N122  N     N_R   0.180969 0.260423 0.881213 0.000000
C364  C     C_R   0.149278 0.278049 0.862865 0.000000
C365  C     C_R   0.134821 0.279656 0.820048 0.000000
C366  C     C_R   0.102195 0.299422 0.807356 0.000000
C367  C     C_R   0.092377 0.325986 0.843714 0.000000
C368  C     C_R   0.117985 0.335311 0.893743 0.000000
C369  C     C_R   0.144965 0.309775 0.901797 0.000000
N123  N     N_R   0.177472 0.319199 0.948972 0.000000
H401  H     H_    0.235372 0.253210 0.053228 0.000000
H402  H     H_    0.268555 0.245846 0.025381 0.000000
H403  H     H_    0.273818 0.302695 0.073650 0.000000
H404  H     H_    0.202996 0.294734 0.014596 0.000000
H405  H     H_    0.262690 0.313065 0.006075 0.000000
H406  H     H_    0.244629 0.253254 0.954477 0.000000
H407  H     H_    0.152014 0.270533 0.800337 0.000000
H408  H     H_    0.086951 0.297530 0.771077 0.000000
H409  H     H_    0.068921 0.343423 0.834660 0.000000
H410  H     H_    0.118993 0.363594 0.926513 0.000000
C370  C     C_3   0.043079 0.258194 0.871716 0.000000
N124  N     N_3   0.079152 0.292468 0.926775 0.000000
C371  C     C_3   0.064252 0.331303 0.944669 0.000000
C372  C     C_R   0.095915 0.365993 0.002430 0.000000
N125  N     N_R   0.142617 0.385367 0.030233 0.000000
C373  C     C_R   0.153219 0.416348 0.079796 0.000000
C374  C     C_R   0.194171 0.449107 0.123704 0.000000
C375  C     C_R   0.197795 0.477553 0.170946 0.000000
C376  C     C_R   0.160054 0.474909 0.172994 0.000000
C377  C     C_R   0.118276 0.444253 0.127593 0.000000
C378  C     C_R   0.115798 0.414842 0.081510 0.000000
N126  N     N_R   0.078620 0.384196 0.032817 0.000000
H411  H     H_    0.057803 0.238318 0.849876 0.000000
H412  H     H_    0.019555 0.235540 0.869840 0.000000
H413  H     H_    0.024297 0.274627 0.852517 0.000000
H414  H     H_    0.082322 0.279367 0.948640 0.000000
H415  H     H_    0.059293 0.346723 0.922773 0.000000
H416  H     H_    0.031174 0.319475 0.937106 0.000000
H417  H     H_    0.223019 0.453202 0.122108 0.000000
H418  H     H_    0.230101 0.502765 0.206235 0.000000
H419  H     H_    0.162979 0.498080 0.209820 0.000000
H420  H     H_    0.089057 0.444356 0.129308 0.000000
C379  C     C_3   0.512182 0.279295 0.225281 0.000000
N127  N     N_3   0.526096 0.308320 0.213213 0.000000
C380  C     C_3   0.565767 0.346793 0.262097 0.000000
C381  C     C_R   0.584324 0.374742 0.250389 0.000000
N128  N     N_R   0.590533 0.355209 0.209231 0.000000
C382  C     C_R   0.602798 0.391350 0.209681 0.000000
C383  C     C_R   0.607261 0.391855 0.172786 0.000000
C384  C     C_R   0.623798 0.433408 0.183453 0.000000
C385  C     C_R   0.640099 0.472728 0.232824 0.000000
C386  C     C_R   0.634334 0.470807 0.268321 0.000000
C387  C     C_R   0.610086 0.430468 0.252806 0.000000
N129  N     N_R   0.595924 0.421955 0.278336 0.000000
H421  H     H_    0.479413 0.252255 0.189737 0.000000
H422  H     H_    0.537840 0.263149 0.236205 0.000000
H423  H     H_    0.508093 0.299621 0.258521 0.000000
H424  H     H_    0.499986 0.320811 0.200663 0.000000
H425  H     H_    0.556824 0.367847 0.290335 0.000000
H426  H     H_    0.591539 0.333848 0.280344 0.000000
H427  H     H_    0.600587 0.360687 0.137663 0.000000
H428  H     H_    0.628800 0.434706 0.155857 0.000000
H429  H     H_    0.658971 0.504558 0.244407 0.000000
H430  H     H_    0.653919 0.498240 0.309106 0.000000
C388  C     C_3   0.696848 0.430227 0.353746 0.000000
N130  N     N_3   0.663370 0.412267 0.358200 0.000000
C389  C     C_3   0.666896 0.447532 0.405640 0.000000
C390  C     C_R   0.625288 0.434879 0.402502 0.000000
N131  N     N_R   0.591119 0.448685 0.379752 0.000000
C391  C     C_R   0.563635 0.443187 0.393743 0.000000
C392  C     C_R   0.526821 0.457414 0.385754 0.000000
C393  C     C_R   0.504493 0.452282 0.406922 0.000000
C394  C     C_R   0.520662 0.435095 0.437272 0.000000
C395  C     C_R   0.558960 0.422642 0.446519 0.000000
C396  C     C_R   0.580052 0.425620 0.423110 0.000000
N132  N     N_R   0.619537 0.418566 0.428903 0.000000
H431  H     H_    0.697403 0.401968 0.321034 0.000000
H432  H     H_    0.688375 0.456115 0.345815 0.000000
H433  H     H_    0.730360 0.446702 0.390730 0.000000
H434  H     H_    0.667490 0.384039 0.358836 0.000000
H435  H     H_    0.698025 0.458337 0.443069 0.000000
H436  H     H_    0.668041 0.478039 0.405402 0.000000
H437  H     H_    0.516286 0.473403 0.364956 0.000000
H438  H     H_    0.475310 0.463085 0.401315 0.000000
H439  H     H_    0.504096 0.432849 0.455572 0.000000
H440  H     H_    0.572024 0.413663 0.474005 0.000000
C397  C     C_3   0.616874 0.567558 0.508536 0.000000
N133  N     N_3   0.625606 0.570973 0.473700 0.000000
C398  C     C_3   0.668283 0.563923 0.482645 0.000000
C399  C     C_R   0.672707 0.563930 0.442432 0.000000
N134  N     N_R   0.637383 0.537345 0.389062 0.000000
C400  C     C_R   0.643876 0.562366 0.372533 0.000000
C401  C     C_R   0.616441 0.555847 0.324201 0.000000
C402  C     C_R   0.634946 0.580065 0.312704 0.000000
C403  C     C_R   0.679266 0.609602 0.349011 0.000000
C404  C     C_R   0.703928 0.619017 0.399164 0.000000
C405  C     C_R   0.684171 0.596844 0.410751 0.000000
N135  N     N_R   0.703604 0.599946 0.456361 0.000000
H441  H     H_    0.583997 0.572420 0.500755 0.000000
H442  H     H_    0.614782 0.533292 0.500320 0.000000
H443  H     H_    0.643888 0.594621 0.550294 0.000000
H444  H     H_    0.629149 0.604207 0.483992 0.000000
H445  H     H_    0.696586 0.592375 0.522941 0.000000
H446  H     H_    0.668521 0.531473 0.478885 0.000000
H447  H     H_    0.583578 0.529651 0.294210 0.000000
H448  H     H_    0.616188 0.573619 0.273984 0.000000
H449  H     H_    0.694744 0.625320 0.338205 0.000000
H450  H     H_    0.737981 0.642563 0.428566 0.000000
C406  C     C_3   0.405320 0.734754 0.153151 0.000000
N136  N     N_3   0.391853 0.685867 0.116279 0.000000
C407  C     C_3   0.404792 0.677748 0.079979 0.000000
C408  C     C_R   0.407161 0.631227 0.054309 0.000000
N137  N     N_R   0.407846 0.604612 0.072518 0.000000
C409  C     C_R   0.408561 0.565678 0.036806 0.000000
C410  C     C_R   0.413167 0.528143 0.037689 0.000000
C411  C     C_R   0.413012 0.491945 0.996630 0.000000
C412  C     C_R   0.402800 0.491735 0.953229 0.000000
C413  C     C_R   0.399616 0.530393 0.954098 0.000000
C414  C     C_R   0.406472 0.568362 0.998456 0.000000
N138  N     N_R   0.407179 0.610085 0.008904 0.000000
H451  H     H_    0.442647 0.749375 0.180847 0.000000
H452  H     H_    0.393257 0.750498 0.130940 0.000000
H453  H     H_    0.390164 0.741841 0.176355 0.000000
H454  H     H_    0.356545 0.673671 0.093525 0.000000
H455  H     H_    0.377915 0.679467 0.048368 0.000000
H456  H     H_    0.438036 0.703004 0.101229 0.000000
H457  H     H_    0.416378 0.526252 0.068620 0.000000
H458  H     H_    0.418972 0.462852 0.997042 0.000000
H459  H     H_    0.398874 0.461629 0.919316 0.000000
H460  H     H_    0.390457 0.529940 0.920246 0.000000
C415  C     C_3   0.298651 0.497421 0.955559 0.000000
N139  N     N_3   0.278795 0.523411 0.983708 0.000000
C416  C     C_3   0.315752 0.563685 0.030604 0.000000
C417  C     C_R   0.308812 0.590904 0.072934 0.000000
N140  N     N_R   0.268080 0.593741 0.067614 0.000000
C418  C     C_R   0.282530 0.628584 0.117405 0.000000
C419  C     C_R   0.256868 0.645879 0.136911 0.000000
C420  C     C_R   0.279145 0.682266 0.189638 0.000000
C421  C     C_R   0.326121 0.700368 0.221697 0.000000
C422  C     C_R   0.351497 0.681722 0.201729 0.000000
C423  C     C_R   0.328967 0.645477 0.149708 0.000000
N141  N     N_R   0.346871 0.621638 0.122895 0.000000
H461  H     H_    0.272956 0.468115 0.915836 0.000000
H462  H     H_    0.318301 0.519105 0.953150 0.000000
H463  H     H_    0.321711 0.484231 0.975587 0.000000
H464  H     H_    0.257696 0.534533 0.962032 0.000000
H465  H     H_    0.343920 0.553017 0.048393 0.000000
H466  H     H_    0.323509 0.585783 0.019996 0.000000
H467  H     H_    0.220659 0.631109 0.112866 0.000000
H468  H     H_    0.259784 0.696546 0.206092 0.000000
H469  H     H_    0.343006 0.728809 0.262769 0.000000
H470  H     H_    0.387711 0.695039 0.226264 0.000000
C424  C     C_3   0.508218 0.759225 0.376120 0.000000
N142  N     N_3   0.520878 0.746823 0.338611 0.000000
C425  C     C_3   0.479544 0.725625 0.286310 0.000000
C426  C     C_R   0.491093 0.718859 0.248169 0.000000
N143  N     N_R   0.531469 0.745407 0.264378 0.000000
C427  C     C_R   0.535016 0.718832 0.222914 0.000000
C428  C     C_R   0.574292 0.720109 0.224129 0.000000
C429  C     C_R   0.575089 0.686775 0.182439 0.000000
C430  C     C_R   0.537761 0.648787 0.141602 0.000000
C431  C     C_R   0.501429 0.644260 0.145143 0.000000
C432  C     C_R   0.498821 0.680249 0.184089 0.000000
N144  N     N_R   0.469173 0.678824 0.197645 0.000000
H471  H     H_    0.537298 0.765913 0.413384 0.000000
H472  H     H_    0.498780 0.790380 0.384741 0.000000
H473  H     H_    0.479304 0.730978 0.359572 0.000000
H474  H     H_    0.536115 0.722114 0.337804 0.000000
H475  H     H_    0.461190 0.691823 0.272875 0.000000
H476  H     H_    0.457922 0.747307 0.287885 0.000000
H477  H     H_    0.606195 0.741147 0.260264 0.000000
H478  H     H_    0.606843 0.687560 0.185886 0.000000
H479  H     H_    0.539786 0.619844 0.111899 0.000000
H480  H     H_    0.481040 0.610319 0.124114 0.000000
C433  C     C_3   0.278625 0.135088 0.729373 0.000000
N145  N     N_3   0.240048 0.150355 0.714429 0.000000
C434  C     C_3   0.248413 0.192985 0.760220 0.000000
C435  C     C_R   0.205102 0.201725 0.744766 0.000000
N146  N     N_R   0.181453 0.202008 0.700481 0.000000
C436  C     C_R   0.139856 0.196938 0.690723 0.000000
C437  C     C_R   0.105113 0.202597 0.655944 0.000000
C438  C     C_R   0.070187 0.209035 0.662696 0.000000
C439  C     C_R   0.067749 0.202833 0.697797 0.000000
C440  C     C_R   0.099915 0.190191 0.726467 0.000000
C441  C     C_R   0.138519 0.193443 0.727041 0.000000
N147  N     N_R   0.180138 0.199439 0.764467 0.000000
H481  H     H_    0.268886 0.098693 0.698507 0.000000
H482  H     H_    0.305465 0.154176 0.732039 0.000000
H483  H     H_    0.290378 0.139055 0.767114 0.000000
H484  H     H_    0.213374 0.127240 0.704407 0.000000
H485  H     H_    0.259122 0.190163 0.793621 0.000000
H486  H     H_    0.274215 0.220383 0.771109 0.000000
H487  H     H_    0.107771 0.208015 0.629372 0.000000
H488  H     H_    0.044879 0.219306 0.640904 0.000000
H489  H     H_    0.041364 0.209732 0.704605 0.000000
H490  H     H_    0.098264 0.187226 0.754925 0.000000
C442  C     C_3   0.212878 0.082857 0.751423 0.000000
N148  N     N_3   0.166910 0.062168 0.732598 0.000000
C443  C     C_3   0.136160 0.083181 0.711301 0.000000
C444  C     C_R   0.117022 0.104060 0.743564 0.000000
N149  N     N_R   0.073541 0.084359 0.727199 0.000000
C445  C     C_R   0.073686 0.114036 0.770918 0.000000
C446  C     C_R   0.037994 0.120468 0.776011 0.000000
C447  C     C_R   0.047062 0.150562 0.826087 0.000000
C448  C     C_R   0.091200 0.177164 0.869295 0.000000
C449  C     C_R   0.125553 0.177046 0.861254 0.000000
C450  C     C_R   0.115299 0.146243 0.811285 0.000000
N150  N     N_R   0.142534 0.143680 0.794475 0.000000
H491  H     H_    0.236311 0.074279 0.778364 0.000000
H492  H     H_    0.216747 0.068550 0.717875 0.000000
H493  H     H_    0.222061 0.120298 0.773549 0.000000
H494  H     H_    0.167710 0.068039 0.765410 0.000000
H495  H     H_    0.153498 0.109017 0.711242 0.000000
H496  H     H_    0.107999 0.056463 0.670044 0.000000
H497  H     H_    0.003979 0.106083 0.742487 0.000000
H498  H     H_    0.019418 0.154339 0.831208 0.000000
H499  H     H_    0.098203 0.200511 0.908441 0.000000
H500  H     H_    0.159834 0.198579 0.893689 0.000000
C451  C     C_3   0.873452 0.369997 0.869819 0.000000
N151  N     N_3   0.908601 0.369650 0.913250 0.000000
C452  C     C_3   0.889005 0.335864 0.914968 0.000000
C453  C     C_R   0.915493 0.305006 0.916641 0.000000
N152  N     N_R   0.894015 0.259228 0.890252 0.000000
C454  C     C_R   0.928552 0.246203 0.912593 0.000000
C455  C     C_R   0.925995 0.204079 0.903679 0.000000
C456  C     C_R   0.965888 0.197210 0.929433 0.000000
C457  C     C_R   0.007036 0.232118 0.963079 0.000000
C458  C     C_R   0.008717 0.274621 0.972458 0.000000
C459  C     C_R   0.968719 0.281151 0.947230 0.000000
N153  N     N_R   0.962171 0.319721 0.951656 0.000000
H501  H     H_    0.888105 0.393807 0.865275 0.000000
H502  H     H_    0.859042 0.336500 0.832240 0.000000
H503  H     H_    0.847386 0.380182 0.877681 0.000000
H504  H     H_    0.919209 0.400479 0.948508 0.000000
H505  H     H_    0.889234 0.353473 0.951593 0.000000
H506  H     H_    0.854384 0.315517 0.878793 0.000000
H507  H     H_    0.893963 0.177253 0.878154 0.000000
H508  H     H_    0.965044 0.164372 0.923074 0.000000
H509  H     H_    0.038071 0.226129 0.982350 0.000000
H510  H     H_    0.040841 0.300999 0.997743 0.000000
C460  C     C_3   0.120917 0.566204 0.149505 0.000000
N154  N     N_3   0.086536 0.545544 0.093668 0.000000
C461  C     C_3   0.068890 0.497085 0.068435 0.000000
C462  C     C_R   0.024860 0.472819 0.015148 0.000000
N155  N     N_R   0.007655 0.426344 0.987111 0.000000
C463  C     C_R   0.988061 0.412887 0.936776 0.000000
C464  C     C_R   0.975110 0.369618 0.893444 0.000000
C465  C     C_R   0.959599 0.363604 0.845737 0.000000
C466  C     C_R   0.956533 0.400371 0.842262 0.000000
C467  C     C_R   0.967247 0.443088 0.885651 0.000000
C468  C     C_R   0.986055 0.449280 0.933839 0.000000
N156  N     N_R   0.009065 0.488671 0.983155 0.000000
H511  H     H_    0.147709 0.595495 0.164417 0.000000
H512  H     H_    0.105948 0.578513 0.173069 0.000000
H513  H     H_    0.136421 0.541292 0.154689 0.000000
H514  H     H_    0.103994 0.549653 0.078471 0.000000
H515  H     H_    0.093962 0.481655 0.062633 0.000000
H516  H     H_    0.064926 0.490824 0.094279 0.000000
H517  H     H_    0.977058 0.341077 0.896185 0.000000
H518  H     H_    0.950814 0.330439 0.811402 0.000000
H519  H     H_    0.948307 0.396018 0.806055 0.000000
H520  H     H_    0.965545 0.470966 0.882109 0.000000
C469  C     C_3   0.013912 0.548730 0.129820 0.000000
N157  N     N_3   0.018109 0.508248 0.128386 0.000000
C470  C     C_3   0.977665 0.469490 0.081812 0.000000
C471  C     C_R   0.982886 0.432159 0.087704 0.000000
N158  N     N_R   0.006185 0.405512 0.071245 0.000000
C472  C     C_R   0.015312 0.385867 0.097482 0.000000
C473  C     C_R   0.037628 0.354942 0.095356 0.000000
C474  C     C_R   0.036930 0.333675 0.119128 0.000000
C475  C     C_R   0.012295 0.342288 0.141855 0.000000
C476  C     C_R   0.991556 0.374882 0.144643 0.000000
C477  C     C_R   0.996703 0.398790 0.126176 0.000000
N159  N     N_R   0.976470 0.429175 0.122138 0.000000
H521  H     H_    0.034694 0.579028 0.171421 0.000000
H522  H     H_    0.026268 0.551677 0.107943 0.000000
H523  H     H_    0.978331 0.546311 0.109742 0.000000
H524  H     H_    0.022766 0.512869 0.162354 0.000000
H525  H     H_    0.946402 0.475102 0.078225 0.000000
H526  H     H_    0.975110 0.460446 0.045528 0.000000
H527  H     H_    0.056016 0.348196 0.076998 0.000000
H528  H     H_    0.053688 0.308681 0.117644 0.000000
H529  H     H_    0.008518 0.322899 0.156424 0.000000
H530  H     H_    0.967570 0.378385 0.154903 0.000000
C478  C     C_3   0.330269 0.370081 0.837487 0.000000
N160  N     N_3   0.334556 0.325882 0.809792 0.000000
C479  C     C_3   0.291546 0.295093 0.759815 0.000000
C480  C     C_R   0.297109 0.252469 0.726253 0.000000
N161  N     N_R   0.338548 0.246719 0.737205 0.000000
C481  C     C_R   0.325761 0.203709 0.695572 0.000000
C482  C     C_R   0.352911 0.179260 0.685486 0.000000
C483  C     C_R   0.332020 0.135164 0.640043 0.000000
C484  C     C_R   0.285065 0.116540 0.605892 0.000000
C485  C     C_R   0.258188 0.141648 0.616775 0.000000
C486  C     C_R   0.279488 0.185050 0.662071 0.000000
N162  N     N_R   0.260111 0.214787 0.680577 0.000000
H531  H     H_    0.346841 0.383385 0.879796 0.000000
H532  H     H_    0.348232 0.393892 0.835566 0.000000
H533  H     H_    0.294210 0.367745 0.820145 0.000000
H534  H     H_    0.340198 0.313358 0.832512 0.000000
H535  H     H_    0.266819 0.286163 0.766927 0.000000
H536  H     H_    0.278068 0.311368 0.738566 0.000000
H537  H     H_    0.389210 0.193475 0.711713 0.000000
H538  H     H_    0.352465 0.115021 0.630950 0.000000
H539  H     H_    0.269416 0.082144 0.570523 0.000000
H540  H     H_    0.221824 0.127666 0.590345 0.000000
C487  C     C_3   0.332258 0.266000 0.640885 0.000000
N163  N     N_3   0.370069 0.300532 0.694249 0.000000
C488  C     C_3   0.355879 0.335684 0.722997 0.000000
C489  C     C_R   0.394558 0.366746 0.780124 0.000000
N164  N     N_R   0.417268 0.349247 0.808494 0.000000
C490  C     C_R   0.458666 0.381339 0.845491 0.000000
C491  C     C_R   0.497136 0.378217 0.879506 0.000000
C492  C     C_R   0.537569 0.412767 0.909803 0.000000
C493  C     C_R   0.539287 0.447487 0.902864 0.000000
C494  C     C_R   0.500229 0.449669 0.867894 0.000000
C495  C     C_R   0.459753 0.417462 0.841978 0.000000
N165  N     N_R   0.419123 0.410617 0.802444 0.000000
H541  H     H_    0.344207 0.239185 0.620893 0.000000
H542  H     H_    0.306073 0.250108 0.641894 0.000000
H543  H     H_    0.319189 0.281687 0.618827 0.000000
H544  H     H_    0.391563 0.315699 0.689854 0.000000
H545  H     H_    0.345694 0.354692 0.705156 0.000000
H546  H     H_    0.326763 0.319852 0.719486 0.000000
H547  H     H_    0.496347 0.349224 0.881708 0.000000
H548  H     H_    0.568456 0.411463 0.936849 0.000000
H549  H     H_    0.571600 0.472791 0.925063 0.000000
H550  H     H_    0.501584 0.476426 0.862051 0.000000
C496  C     C_3   0.488900 0.359665 0.757068 0.000000
N166  N     N_3   0.506533 0.331855 0.775170 0.000000
C497  C     C_3   0.469399 0.292429 0.747811 0.000000
C498  C     C_R   0.482634 0.272221 0.776963 0.000000
N167  N     N_R   0.519811 0.258124 0.787638 0.000000
C499  C     C_R   0.514907 0.235959 0.807648 0.000000
C500  C     C_R   0.540829 0.211745 0.822108 0.000000
C501  C     C_R   0.532241 0.195014 0.846390 0.000000
C502  C     C_R   0.498408 0.202825 0.855583 0.000000
C503  C     C_R   0.471475 0.225547 0.838301 0.000000
C504  C     C_R   0.479469 0.240751 0.813196 0.000000
N168  N     N_R   0.457620 0.263903 0.794075 0.000000
H551  H     H_    0.476040 0.340814 0.714666 0.000000
H552  H     H_    0.460483 0.366244 0.760221 0.000000
H553  H     H_    0.515926 0.392548 0.781866 0.000000
H554  H     H_    0.521449 0.349773 0.815678 0.000000
H555  H     H_    0.441152 0.301867 0.748771 0.000000
H556  H     H_    0.459764 0.267848 0.706623 0.000000
H557  H     H_    0.566459 0.205015 0.813943 0.000000
H558  H     H_    0.552196 0.176087 0.858631 0.000000
H559  H     H_    0.492813 0.190610 0.875859 0.000000
H560  H     H_    0.445273 0.231771 0.844489 0.000000
C505  C     C_3   0.278002 0.695624 0.000212 0.000000
N169  N     N_3   0.268769 0.646706 0.971974 0.000000
C506  C     C_3   0.236842 0.628491 0.977843 0.000000
C507  C     C_R   0.206973 0.580693 0.931784 0.000000
N170  N     N_R   0.185921 0.565152 0.878800 0.000000
C508  C     C_R   0.148010 0.532323 0.854873 0.000000
C509  C     C_R   0.111431 0.509315 0.803496 0.000000
C510  C     C_R   0.076621 0.474998 0.786518 0.000000
C511  C     C_R   0.079201 0.464918 0.821121 0.000000
C512  C     C_R   0.115526 0.490795 0.873522 0.000000
C513  C     C_R   0.148432 0.525384 0.889779 0.000000
N171  N     N_R   0.186136 0.554040 0.938831 0.000000
H561  H     H_    0.306880 0.711619 0.002930 0.000000
H562  H     H_    0.248064 0.703051 0.978359 0.000000
H563  H     H_    0.286754 0.710109 0.040928 0.000000
H564  H     H_    0.298733 0.641737 0.992133 0.000000
H565  H     H_    0.255662 0.629776 0.014580 0.000000
H566  H     H_    0.214869 0.649625 0.981264 0.000000
H567  H     H_    0.109619 0.517959 0.777370 0.000000
H568  H     H_    0.048026 0.455022 0.745817 0.000000
H569  H     H_    0.052934 0.436729 0.807061 0.000000
H570  H     H_    0.121048 0.482280 0.900425 0.000000
C514  C     C_3   0.070403 0.425531 0.904869 0.000000
N172  N     N_3   0.074841 0.472842 0.925694 0.000000
C515  C     C_3   0.100334 0.498522 0.982670 0.000000
C516  C     C_R   0.111933 0.547755 0.005673 0.000000
N173  N     N_R   0.149720 0.572044 0.015322 0.000000
C517  C     C_R   0.142588 0.611968 0.026618 0.000000
C518  C     C_R   0.168449 0.648638 0.036746 0.000000
C519  C     C_R   0.153337 0.685472 0.044663 0.000000
C520  C     C_R   0.112956 0.684773 0.041836 0.000000
C521  C     C_R   0.087225 0.647355 0.031464 0.000000
C522  C     C_R   0.103216 0.611608 0.024566 0.000000
N174  N     N_R   0.082868 0.571579 0.012114 0.000000
H571  H     H_    0.043351 0.404333 0.861947 0.000000
H572  H     H_    0.102700 0.420929 0.910317 0.000000
H573  H     H_    0.062390 0.415344 0.926029 0.000000
H574  H     H_    0.043295 0.476279 0.911524 0.000000
H575  H     H_    0.081297 0.488909 0.994826 0.000000
H576  H     H_    0.130716 0.489956 0.996992 0.000000
H577  H     H_    0.199837 0.649038 0.039341 0.000000
H578  H     H_    0.173042 0.715004 0.052921 0.000000
H579  H     H_    0.101538 0.713685 0.047731 0.000000
H580  H     H_    0.055695 0.646296 0.028854 0.000000
C523  C     C_3   0.174200 0.444501 0.543331 0.000000
N175  N     N_3   0.184132 0.462088 0.595753 0.000000
C524  C     C_3   0.144111 0.448327 0.593852 0.000000
C525  C     C_R   0.124036 0.398252 0.562369 0.000000
N176  N     N_R   0.142575 0.373362 0.582435 0.000000
C526  C     C_R   0.109920 0.332282 0.545650 0.000000
C527  C     C_R   0.100529 0.299017 0.551813 0.000000
C528  C     C_R   0.063027 0.260665 0.509734 0.000000
C529  C     C_R   0.036532 0.255437 0.461806 0.000000
C530  C     C_R   0.043548 0.291924 0.459424 0.000000
C531  C     C_R   0.077121 0.331465 0.503908 0.000000
N177  N     N_R   0.081886 0.373407 0.514384 0.000000
H581  H     H_    0.205857 0.456182 0.547536 0.000000
H582  H     H_    0.161700 0.406801 0.517928 0.000000
H583  H     H_    0.149934 0.458425 0.525045 0.000000
H584  H     H_    0.194741 0.497545 0.616732 0.000000
H585  H     H_    0.152610 0.463696 0.634294 0.000000
H586  H     H_    0.119120 0.461587 0.577582 0.000000
H587  H     H_    0.117801 0.303961 0.589330 0.000000
H588  H     H_    0.054505 0.235352 0.515087 0.000000
H589  H     H_    0.008419 0.224533 0.427569 0.000000
H590  H     H_    0.024297 0.289683 0.423835 0.000000
C532  C     C_3   0.987642 0.949337 0.317273 0.000000
N178  N     N_3   0.953272 0.910728 0.298642 0.000000
C533  C     C_3   0.943305 0.921779 0.338342 0.000000
C534  C     C_R   0.980326 0.921890 0.381816 0.000000
N179  N     N_R   0.990626 0.882586 0.371153 0.000000
C535  C     C_R   0.035446 0.898948 0.407557 0.000000
C536  C     C_R   0.064588 0.874637 0.411912 0.000000
C537  C     C_R   0.110501 0.899009 0.446743 0.000000
C538  C     C_R   0.125839 0.946320 0.475519 0.000000
C539  C     C_R   0.095518 0.970074 0.471842 0.000000
C540  C     C_R   0.050472 0.945537 0.438930 0.000000
N180  N     N_R   0.015733 0.961463 0.426506 0.000000
H591  H     H_    0.989751 0.942294 0.283780 0.000000
H592  H     H_    0.978548 0.980474 0.331595 0.000000
H593  H     H_    0.021217 0.954335 0.348982 0.000000
H594  H     H_    0.966936 0.884733 0.293243 0.000000
H595  H     H_    0.939044 0.954974 0.353214 0.000000
H596  H     H_    0.912092 0.895993 0.320634 0.000000
H597  H     H_    0.052352 0.837877 0.387178 0.000000
H598  H     H_    0.134616 0.881077 0.450298 0.000000
H599  H     H_    0.161787 0.964759 0.501046 0.000000
H600  H     H_    0.106702 0.006470 0.492143 0.000000
C541  C     C_3   0.016199 0.142169 0.435552 0.000000
N181  N     N_3   0.997589 0.108784 0.439471 0.000000
C542  C     C_3   0.961027 0.072522 0.386120 0.000000
C543  C     C_R   0.934033 0.042047 0.387520 0.000000
N182  N     N_R   0.952737 0.030090 0.423191 0.000000
C544  C     C_R   0.915175 0.009919 0.416034 0.000000
C545  C     C_R   0.911635 0.993156 0.442539 0.000000
C546  C     C_R   0.869705 0.979723 0.432890 0.000000
C547  C     C_R   0.831166 0.974436 0.390535 0.000000
C548  C     C_R   0.834834 0.985319 0.359524 0.000000
C549  C     C_R   0.877099 0.007195 0.376364 0.000000
N183  N     N_R   0.887064 0.026911 0.356544 0.000000
H601  H     H_    0.051488 0.162513 0.470428 0.000000
H602  H     H_    0.016367 0.125092 0.399148 0.000000
H603  H     H_    0.995146 0.164330 0.434123 0.000000
H604  H     H_    0.983308 0.124435 0.460838 0.000000
H605  H     H_    0.938511 0.088144 0.368977 0.000000
H606  H     H_    0.974326 0.053112 0.362164 0.000000
H607  H     H_    0.939504 0.990350 0.470419 0.000000
H608  H     H_    0.866657 0.970714 0.456719 0.000000
H609  H     H_    0.798463 0.961452 0.381773 0.000000
H610  H     H_    0.805310 0.978860 0.324562 0.000000
C550  C     C_3   0.568991 0.675462 0.996525 0.000000
N184  N     N_3   0.556153 0.709782 0.027929 0.000000
C551  C     C_3   0.526477 0.687024 0.033066 0.000000
C552  C     C_R   0.503362 0.717419 0.052520 0.000000
N185  N     N_R   0.456887 0.701574 0.025846 0.000000
C553  C     C_R   0.448604 0.740154 0.050809 0.000000
C554  C     C_R   0.408039 0.745320 0.043019 0.000000
C555  C     C_R   0.406736 0.788504 0.070881 0.000000
C556  C     C_R   0.446122 0.825658 0.107739 0.000000
C557  C     C_R   0.487296 0.819567 0.118906 0.000000
C558  C     C_R   0.487787 0.776559 0.089565 0.000000
N186  N     N_R   0.524089 0.763790 0.093615 0.000000
H611  H     H_    0.581830 0.655729 0.013371 0.000000
H612  H     H_    0.538896 0.652269 0.955513 0.000000
H613  H     H_    0.595692 0.692130 0.996626 0.000000
H614  H     H_    0.537134 0.722018 0.005990 0.000000
H615  H     H_    0.500144 0.656459 0.993589 0.000000
H616  H     H_    0.544629 0.675926 0.059122 0.000000
H617  H     H_    0.377592 0.716879 0.015801 0.000000
H618  H     H_    0.374822 0.793242 0.063992 0.000000
H619  H     H_    0.444796 0.859409 0.129179 0.000000
H620  H     H_    0.517899 0.848109 0.150185 0.000000
C559  C     C_3   0.255916 0.484560 0.843884 0.000000
N187  N     N_3   0.256996 0.531567 0.869515 0.000000
C560  C     C_3   0.302676 0.563705 0.904555 0.000000
C561  C     C_R   0.303845 0.604013 0.902377 0.000000
N188  N     N_R   0.265933 0.615088 0.880570 0.000000
C562  C     C_R   0.283677 0.655145 0.891158 0.000000
C563  C     C_R   0.260492 0.680927 0.876793 0.000000
C564  C     C_R   0.285117 0.719065 0.887391 0.000000
C565  C     C_R   0.331623 0.730092 0.911121 0.000000
C566  C     C_R   0.354270 0.703396 0.924938 0.000000
C567  C     C_R   0.329508 0.666046 0.915192 0.000000
N189  N     N_R   0.343974 0.635236 0.925223 0.000000
H621  H     H_    0.229619 0.464717 0.841211 0.000000
H622  H     H_    0.244801 0.469302 0.802880 0.000000
H623  H     H_    0.288869 0.480945 0.865074 0.000000
H624  H     H_    0.248171 0.534975 0.894985 0.000000
H625  H     H_    0.315302 0.576362 0.945759 0.000000
H626  H     H_    0.325381 0.547888 0.894915 0.000000
H627  H     H_    0.224204 0.671454 0.857253 0.000000
H628  H     H_    0.267996 0.740152 0.876591 0.000000
H629  H     H_    0.350381 0.759888 0.918921 0.000000
H630  H     H_    0.390408 0.712593 0.943707 0.000000
C568  C     C_3   0.517364 0.528802 0.991406 0.000000
N190  N     N_3   0.485874 0.517708 0.938541 0.000000
C569  C     C_3   0.480822 0.559621 0.944375 0.000000
C570  C     C_R   0.438295 0.552816 0.898232 0.000000
N191  N     N_R   0.427358 0.525645 0.846031 0.000000
C571  C     C_R   0.414251 0.553092 0.829979 0.000000
C572  C     C_R   0.403591 0.545928 0.783158 0.000000
C573  C     C_R   0.392202 0.579136 0.774875 0.000000
C574  C     C_R   0.390613 0.617832 0.812619 0.000000
C575  C     C_R   0.399985 0.623584 0.858861 0.000000
C576  C     C_R   0.411937 0.590758 0.866723 0.000000
N192  N     N_R   0.423793 0.590447 0.909353 0.000000
H631  H     H_    0.529766 0.500046 0.988277 0.000000
H632  H     H_    0.546853 0.559342 0.014122 0.000000
H633  H     H_    0.500371 0.535423 0.012624 0.000000
H634  H     H_    0.454785 0.495507 0.921236 0.000000
H635  H     H_    0.481030 0.581645 0.980613 0.000000
H636  H     H_    0.509989 0.577743 0.949088 0.000000
H637  H     H_    0.405752 0.516251 0.754749 0.000000
H638  H     H_    0.384560 0.574983 0.738824 0.000000
H639  H     H_    0.381879 0.643623 0.805761 0.000000
H640  H     H_    0.400014 0.653814 0.888766 0.000000
C577  C     C_3   0.651243 0.144903 0.052863 0.000000
N193  N     N_3   0.676802 0.192024 0.098410 0.000000
C578  C     C_3   0.644651 0.216093 0.099659 0.000000
C579  C     C_R   0.667300 0.266522 0.134068 0.000000
N194  N     N_R   0.647013 0.297164 0.153155 0.000000
C580  C     C_R   0.675972 0.336869 0.172680 0.000000
C581  C     C_R   0.689388 0.379725 0.216463 0.000000
C582  C     C_R   0.718741 0.415395 0.228005 0.000000
C583  C     C_R   0.739352 0.406918 0.200921 0.000000
C584  C     C_R   0.735520 0.362595 0.168414 0.000000
C585  C     C_R   0.706153 0.328973 0.159113 0.000000
N195  N     N_R   0.706877 0.286917 0.142963 0.000000
H641  H     H_    0.674593 0.125074 0.052199 0.000000
H642  H     H_    0.625266 0.130114 0.055072 0.000000
H643  H     H_    0.634615 0.142751 0.015542 0.000000
H644  H     H_    0.696936 0.205340 0.091212 0.000000
H645  H     H_    0.619145 0.206145 0.059104 0.000000
H646  H     H_    0.627186 0.206571 0.114104 0.000000
H647  H     H_    0.678970 0.385660 0.242500 0.000000
H648  H     H_    0.726384 0.449843 0.259012 0.000000
H649  H     H_    0.762695 0.434709 0.210403 0.000000
H650  H     H_    0.756297 0.354843 0.152750 0.000000
C586  C     C_3   0.701951 0.259822 0.230467 0.000000
N196  N     N_3   0.697824 0.302670 0.263286 0.000000
C587  C     C_3   0.657793 0.299399 0.264841 0.000000
C588  C     C_R   0.622559 0.254518 0.225628 0.000000
N197  N     N_R   0.587248 0.248364 0.180639 0.000000
C589  C     C_R   0.557568 0.208555 0.158191 0.000000
C590  C     C_R   0.513425 0.188620 0.115380 0.000000
C591  C     C_R   0.488916 0.146836 0.097868 0.000000
C592  C     C_R   0.508820 0.125977 0.123187 0.000000
C593  C     C_R   0.552522 0.147783 0.168120 0.000000
C594  C     C_R   0.575884 0.190355 0.186756 0.000000
N198  N     N_R   0.617682 0.218965 0.231323 0.000000
H651  H     H_    0.721325 0.265309 0.215682 0.000000
H652  H     H_    0.723011 0.250015 0.255899 0.000000
H653  H     H_    0.670548 0.231488 0.196058 0.000000
H654  H     H_    0.696898 0.322298 0.249097 0.000000
H655  H     H_    0.664808 0.313008 0.304001 0.000000
H656  H     H_    0.642478 0.322197 0.254814 0.000000
H657  H     H_    0.497436 0.205670 0.097212 0.000000
H658  H     H_    0.454178 0.130152 0.063969 0.000000
H659  H     H_    0.489785 0.092649 0.108164 0.000000
H660  H     H_    0.567802 0.130534 0.186146 0.000000
C595  C     C_3   0.711125 0.319474 0.532996 0.000000
N199  N     N_3   0.732356 0.366167 0.553824 0.000000
C596  C     C_3   0.718625 0.397657 0.586985 0.000000
C597  C     C_R   0.668840 0.384148 0.557725 0.000000
N200  N     N_R   0.642451 0.375519 0.508075 0.000000
C598  C     C_R   0.600758 0.354260 0.491488 0.000000
C599  C     C_R   0.561553 0.332659 0.441863 0.000000
C600  C     C_R   0.522433 0.312431 0.433597 0.000000
C601  C     C_R   0.523315 0.313363 0.474307 0.000000
C602  C     C_R   0.563461 0.333956 0.523584 0.000000
C603  C     C_R   0.601923 0.353851 0.530926 0.000000
N201  N     N_R   0.644893 0.372209 0.573824 0.000000
H661  H     H_    0.732403 0.299049 0.524113 0.000000
H662  H     H_    0.707846 0.318048 0.562226 0.000000
H663  H     H_    0.677335 0.304305 0.495571 0.000000
H664  H     H_    0.721261 0.368094 0.521610 0.000000
H665  H     H_    0.731596 0.397323 0.621961 0.000000
H666  H     H_    0.733111 0.432697 0.600558 0.000000
H667  H     H_    0.561111 0.332531 0.410686 0.000000
H668  H     H_    0.490921 0.295784 0.395146 0.000000
H669  H     H_    0.492558 0.297144 0.467148 0.000000
H670  H     H_    0.564632 0.333184 0.554680 0.000000
C604  C     C_3   0.832682 0.398316 0.532546 0.000000
N202  N     N_3   0.796137 0.410648 0.537637 0.000000
C605  C     C_3   0.799609 0.455813 0.548749 0.000000
C606  C     C_R   0.766697 0.473257 0.560671 0.000000
N203  N     N_R   0.720693 0.450848 0.533631 0.000000
C607  C     C_R   0.707973 0.484898 0.558677 0.000000
C608  C     C_R   0.666929 0.482440 0.552368 0.000000
C609  C     C_R   0.659787 0.522142 0.579460 0.000000
C610  C     C_R   0.693116 0.563562 0.609882 0.000000
C611  C     C_R   0.734298 0.564591 0.615846 0.000000
C612  C     C_R   0.742090 0.524658 0.594097 0.000000
N204  N     N_R   0.780446 0.518635 0.598347 0.000000
H671  H     H_    0.819262 0.374045 0.490159 0.000000
H672  H     H_    0.859351 0.428696 0.549442 0.000000
H673  H     H_    0.847213 0.381823 0.553413 0.000000
H674  H     H_    0.801247 0.411874 0.569913 0.000000
H675  H     H_    0.832542 0.480884 0.582883 0.000000
H676  H     H_    0.797177 0.457503 0.517280 0.000000
H677  H     H_    0.641702 0.450573 0.528918 0.000000
H678  H     H_    0.627510 0.520926 0.574985 0.000000
H679  H     H_    0.686822 0.594983 0.628542 0.000000
H680  H     H_    0.758408 0.595383 0.633576 0.000000
C613  C     C_3   0.529808 0.240850 0.313127 0.000000
N205  N     N_3   0.572854 0.263142 0.326237 0.000000
C614  C     C_3   0.609651 0.265047 0.371045 0.000000
C615  C     C_R   0.653174 0.290444 0.386239 0.000000
N206  N     N_R   0.674203 0.270439 0.360323 0.000000
C616  C     C_R   0.707902 0.306707 0.381970 0.000000
C617  C     C_R   0.734581 0.308815 0.364697 0.000000
C618  C     C_R   0.759396 0.350235 0.382963 0.000000
C619  C     C_R   0.758556 0.388932 0.419135 0.000000
C620  C     C_R   0.730387 0.386063 0.434668 0.000000
C621  C     C_R   0.706435 0.345260 0.416928 0.000000
N207  N     N_R   0.672663 0.337388 0.421700 0.000000
H681  H     H_    0.508091 0.213645 0.269987 0.000000
H682  H     H_    0.534979 0.225721 0.335595 0.000000
H683  H     H_    0.512365 0.265918 0.322470 0.000000
H684  H     H_    0.574854 0.296585 0.338108 0.000000
H685  H     H_    0.606690 0.282722 0.405313 0.000000
H686  H     H_    0.609456 0.230336 0.360393 0.000000
H687  H     H_    0.730549 0.280307 0.331215 0.000000
H688  H     H_    0.775630 0.352866 0.365044 0.000000
H689  H     H_    0.778214 0.420773 0.432295 0.000000
H690  H     H_    0.724893 0.414753 0.457923 0.000000
C622  C     C_3   0.491498 0.858592 0.231553 0.000000
N208  N     N_3   0.533650 0.857259 0.234837 0.000000
C623  C     C_3   0.537689 0.813704 0.225051 0.000000
C624  C     C_R   0.585509 0.815740 0.246430 0.000000
N209  N     N_R   0.608268 0.813948 0.223131 0.000000
C625  C     C_R   0.649218 0.814737 0.256822 0.000000
C626  C     C_R   0.687786 0.816482 0.257130 0.000000
C627  C     C_R   0.726230 0.820377 0.298573 0.000000
C628  C     C_R   0.723950 0.813316 0.332658 0.000000
C629  C     C_R   0.685846 0.813395 0.333297 0.000000
C630  C     C_R   0.650228 0.816679 0.296947 0.000000
N210  N     N_R   0.610257 0.816120 0.290930 0.000000
H691  H     H_    0.476730 0.878512 0.215917 0.000000
H692  H     H_    0.466522 0.823866 0.204121 0.000000
H693  H     H_    0.498074 0.874999 0.271461 0.000000
H694  H     H_    0.559985 0.882703 0.273845 0.000000
H695  H     H_    0.527157 0.806730 0.246638 0.000000
H696  H     H_    0.515884 0.785898 0.182283 0.000000
H697  H     H_    0.690382 0.818184 0.229114 0.000000
H698  H     H_    0.758632 0.829383 0.305020 0.000000
H699  H     H_    0.753679 0.813344 0.362754 0.000000
H700  H     H_    0.685657 0.814270 0.363904 0.000000
C631  C     C_3   0.707743 0.964783 0.406971 0.000000
N211  N     N_3   0.661342 0.943105 0.385881 0.000000
C632  C     C_3   0.660818 0.919946 0.409974 0.000000
C633  C     C_R   0.615973 0.911966 0.401688 0.000000
N212  N     N_R   0.599260 0.947428 0.416748 0.000000
C634  C     C_R   0.555074 0.924137 0.392311 0.000000
C635  C     C_R   0.519330 0.940030 0.388888 0.000000
C636  C     C_R   0.476653 0.908820 0.359028 0.000000
C637  C     C_R   0.469425 0.862439 0.331782 0.000000
C638  C     C_R   0.505081 0.846825 0.334648 0.000000
C639  C     C_R   0.547255 0.878068 0.365706 0.000000
N213  N     N_R   0.584909 0.868827 0.370758 0.000000
H701  H     H_    0.708677 0.985762 0.392540 0.000000
H702  H     H_    0.727259 0.988208 0.450734 0.000000
H703  H     H_    0.722489 0.938420 0.392762 0.000000
H704  H     H_    0.645022 0.917951 0.345461 0.000000
H705  H     H_    0.666236 0.887264 0.391168 0.000000
H706  H     H_    0.687654 0.940714 0.452705 0.000000
H707  H     H_    0.523286 0.975651 0.409274 0.000000
H708  H     H_    0.448493 0.920787 0.356338 0.000000
H709  H     H_    0.435708 0.838445 0.307510 0.000000
H710  H     H_    0.499938 0.811235 0.311776 0.000000
C640  C     C_3   0.633325 0.840968 0.505548 0.000000
N214  N     N_3   0.628146 0.844965 0.463971 0.000000
C641  C     C_3   0.671824 0.853283 0.470948 0.000000
C642  C     C_R   0.670510 0.811241 0.428312 0.000000
N215  N     N_R   0.632964 0.786190 0.376907 0.000000
C643  C     C_R   0.640949 0.746644 0.355676 0.000000
C644  C     C_R   0.612154 0.705100 0.309103 0.000000
C645  C     C_R   0.631221 0.674275 0.288752 0.000000
C646  C     C_R   0.677807 0.685984 0.315869 0.000000
C647  C     C_R   0.704651 0.724399 0.367257 0.000000
C648  C     C_R   0.684060 0.751447 0.388449 0.000000
N216  N     N_R   0.703488 0.790787 0.436530 0.000000
H711  H     H_    0.649750 0.815396 0.506678 0.000000
H712  H     H_    0.654094 0.874038 0.544522 0.000000
H713  H     H_    0.599593 0.830445 0.497734 0.000000
H714  H     H_    0.617926 0.873052 0.468276 0.000000
H715  H     H_    0.677892 0.881701 0.467749 0.000000
H716  H     H_    0.699099 0.862227 0.510359 0.000000
H717  H     H_    0.576090 0.696700 0.288393 0.000000
H718  H     H_    0.610074 0.642928 0.249890 0.000000
H719  H     H_    0.693110 0.664403 0.297463 0.000000
H720  H     H_    0.740371 0.735801 0.386822 0.000000
C649  C     C_3   0.765716 0.025867 0.752893 0.000000
N217  N     N_3   0.803366 0.052991 0.761378 0.000000
C650  C     C_3   0.787351 0.080805 0.741810 0.000000
C651  C     C_R   0.824565 0.105852 0.746506 0.000000
N218  N     N_R   0.844596 0.152815 0.782081 0.000000
C652  C     C_R   0.874736 0.161078 0.771588 0.000000
C653  C     C_R   0.904444 0.201855 0.793144 0.000000
C654  C     C_R   0.925789 0.203068 0.769393 0.000000
C655  C     C_R   0.916063 0.164281 0.723254 0.000000
C656  C     C_R   0.886664 0.124100 0.702787 0.000000
C657  C     C_R   0.870064 0.122317 0.730130 0.000000
N219  N     N_R   0.839868 0.085767 0.713471 0.000000
H721  H     H_    0.778689 0.009647 0.774420 0.000000
H722  H     H_    0.747579 0.047561 0.767496 0.000000
H723  H     H_    0.741925 0.999088 0.710247 0.000000
H724  H     H_    0.814557 0.030933 0.739201 0.000000
H725  H     H_    0.757694 0.059982 0.700465 0.000000
H726  H     H_    0.777589 0.106248 0.766463 0.000000
H727  H     H_    0.911629 0.233294 0.826886 0.000000
H728  H     H_    0.947513 0.235170 0.784831 0.000000
H729  H     H_    0.929553 0.165873 0.701914 0.000000
H730  H     H_    0.872433 0.096267 0.663260 0.000000
C658  C     C_3   0.804787 0.358689 0.944338 0.000000
N220  N     N_3   0.782562 0.313555 0.927046 0.000000
C659  C     C_3   0.794856 0.280067 0.894145 0.000000
C660  C     C_R   0.790117 0.239265 0.893806 0.000000
N221  N     N_R   0.773100 0.232110 0.918562 0.000000
C661  C     C_R   0.772836 0.189418 0.903820 0.000000
C662  C     C_R   0.757010 0.163289 0.914958 0.000000
C663  C     C_R   0.766070 0.122942 0.902261 0.000000
C664  C     C_R   0.791128 0.110229 0.880017 0.000000
C665  C     C_R   0.804985 0.136128 0.866986 0.000000
C666  C     C_R   0.793184 0.174407 0.876716 0.000000
N222  N     N_R   0.803284 0.204743 0.868002 0.000000
H731  H     H_    0.783224 0.379790 0.949644 0.000000
H732  H     H_    0.838049 0.375819 0.982257 0.000000
H733  H     H_    0.811282 0.356892 0.915772 0.000000
H734  H     H_    0.747683 0.305802 0.904517 0.000000
H735  H     H_    0.774584 0.270377 0.853362 0.000000
H736  H     H_    0.830191 0.292934 0.910536 0.000000
H737  H     H_    0.739276 0.174332 0.934347 0.000000
H738  H     H_    0.755079 0.102045 0.911599 0.000000
H739  H     H_    0.799821 0.079757 0.872734 0.000000
H740  H     H_    0.825987 0.127460 0.851851 0.000000
C667  C     C_3   0.681754 0.090349 0.705300 0.000000
N223  N     N_3   0.707512 0.124024 0.707226 0.000000
C668  C     C_3   0.709547 0.169150 0.743728 0.000000
C669  C     C_R   0.735907 0.202945 0.745018 0.000000
N224  N     N_R   0.782788 0.217999 0.774014 0.000000
C670  C     C_R   0.791024 0.234002 0.750075 0.000000
C671  C     C_R   0.831809 0.250916 0.760126 0.000000
C672  C     C_R   0.832091 0.259508 0.725728 0.000000
C673  C     C_R   0.791698 0.251295 0.682394 0.000000
C674  C     C_R   0.751011 0.236881 0.674921 0.000000
C675  C     C_R   0.751663 0.229080 0.709741 0.000000
N225  N     N_R   0.715835 0.211905 0.706946 0.000000
H741  H     H_    0.674545 0.055774 0.672095 0.000000
H742  H     H_    0.701561 0.093141 0.742997 0.000000
H743  H     H_    0.649413 0.095548 0.698946 0.000000
H744  H     H_    0.690423 0.117357 0.669458 0.000000
H745  H     H_    0.675111 0.171245 0.730232 0.000000
H746  H     H_    0.725930 0.176417 0.783613 0.000000
H747  H     H_    0.862672 0.260206 0.795587 0.000000
H748  H     H_    0.863918 0.272834 0.732779 0.000000
H749  H     H_    0.791986 0.257051 0.654932 0.000000
H750  H     H_    0.719636 0.231840 0.642618 0.000000
C676  C     C_3   0.626102 0.714449 0.440896 0.000000
N226  N     N_3   0.674074 0.740514 0.480558 0.000000
C677  C     C_3   0.698730 0.709517 0.469076 0.000000
C678  C     C_R   0.747603 0.732204 0.512480 0.000000
N227  N     N_R   0.771085 0.775144 0.531798 0.000000
C679  C     C_R   0.809748 0.786446 0.576089 0.000000
C680  C     C_R   0.846249 0.825681 0.610388 0.000000
C681  C     C_R   0.879282 0.834194 0.658539 0.000000
C682  C     C_R   0.878454 0.801008 0.667709 0.000000
C683  C     C_R   0.844675 0.759162 0.628920 0.000000
C684  C     C_R   0.809881 0.752221 0.582921 0.000000
N228  N     N_R   0.772274 0.715120 0.540930 0.000000
H751  H     H_    0.605965 0.737498 0.445339 0.000000
H752  H     H_    0.618996 0.697032 0.400467 0.000000
H753  H     H_    0.615955 0.688874 0.446345 0.000000
H754  H     H_    0.680324 0.751128 0.517403 0.000000
H755  H     H_    0.685599 0.679909 0.466956 0.000000
H756  H     H_    0.694184 0.699566 0.431352 0.000000
H757  H     H_    0.847725 0.850535 0.601772 0.000000
H758  H     H_    0.905746 0.866738 0.689584 0.000000
H759  H     H_    0.905234 0.807342 0.704822 0.000000
H760  H     H_    0.847229 0.733218 0.635506 0.000000
C685  C     C_3   0.820033 0.514747 0.493384 0.000000
N229  N     N_3   0.831420 0.555326 0.542681 0.000000
C686  C     C_3   0.789760 0.562582 0.536527 0.000000
C687  C     C_R   0.801421 0.606847 0.584271 0.000000
N230  N     N_R   0.825579 0.616733 0.634605 0.000000
C688  C     C_R   0.828266 0.660352 0.664359 0.000000
C689  C     C_R   0.852788 0.690261 0.718774 0.000000
C690  C     C_R   0.846587 0.732134 0.739897 0.000000
C691  C     C_R   0.815741 0.742755 0.706824 0.000000
C692  C     C_R   0.793136 0.713005 0.652244 0.000000
C693  C     C_R   0.803114 0.673596 0.632554 0.000000
N231  N     N_R   0.788752 0.641866 0.581934 0.000000
H761  H     H_    0.844567 0.496776 0.501597 0.000000
H762  H     H_    0.785623 0.492826 0.473038 0.000000
H763  H     H_    0.820960 0.524051 0.467995 0.000000
H764  H     H_    0.847947 0.582400 0.546454 0.000000
H765  H     H_    0.770173 0.563579 0.501458 0.000000
H766  H     H_    0.768951 0.535256 0.531601 0.000000
H767  H     H_    0.873849 0.680567 0.744391 0.000000
H768  H     H_    0.864292 0.755861 0.782449 0.000000
H769  H     H_    0.810002 0.774847 0.723869 0.000000
H770  H     H_    0.769978 0.721453 0.626247 0.000000
C694  C     C_3   0.957981 0.727782 0.672365 0.000000
N232  N     N_3   0.935469 0.691199 0.616285 0.000000
C695  C     C_3   0.888833 0.688485 0.588490 0.000000
C696  C     C_R   0.862697 0.651761 0.530900 0.000000
N233  N     N_R   0.881576 0.630543 0.502460 0.000000
C697  C     C_R   0.844522 0.595883 0.455629 0.000000
C698  C     C_R   0.842729 0.558963 0.414725 0.000000
C699  C     C_R   0.801630 0.527639 0.369129 0.000000
C700  C     C_R   0.763452 0.527762 0.369832 0.000000
C701  C     C_R   0.766799 0.560591 0.415185 0.000000
C702  C     C_R   0.806500 0.596804 0.455749 0.000000
N234  N     N_R   0.816196 0.632376 0.502501 0.000000
H771  H     H_    0.981564 0.757109 0.683133 0.000000
H772  H     H_    0.933075 0.738839 0.682047 0.000000
H773  H     H_    0.978301 0.715609 0.696575 0.000000
H774  H     H_    0.933865 0.661712 0.614955 0.000000
H775  H     H_    0.872567 0.679734 0.604550 0.000000
H776  H     H_    0.887662 0.720726 0.592871 0.000000
H777  H     H_    0.872384 0.551555 0.420377 0.000000
H778  H     H_    0.800114 0.500075 0.335227 0.000000
H779  H     H_    0.732139 0.500016 0.337028 0.000000
H780  H     H_    0.739716 0.554815 0.418807 0.000000
C703  C     C_3   0.962900 0.688887 0.006048 0.000000
N235  N     N_3   0.950560 0.644499 0.959595 0.000000
C704  C     C_3   0.935110 0.609625 0.963910 0.000000
C705  C     C_R   0.931130 0.565299 0.921732 0.000000
N236  N     N_R   0.907369 0.557146 0.872098 0.000000
C706  C     C_R   0.938500 0.551796 0.860003 0.000000
C707  C     C_R   0.943447 0.564425 0.831090 0.000000
C708  C     C_R   0.980283 0.561529 0.827285 0.000000
C709  C     C_R   0.013568 0.549720 0.856175 0.000000
C710  C     C_R   0.011764 0.544620 0.892047 0.000000
C711  C     C_R   0.974505 0.547542 0.894705 0.000000
N237  N     N_R   0.970168 0.553657 0.933629 0.000000
H781  H     H_    0.974569 0.715649 0.002970 0.000000
H782  H     H_    0.932775 0.692198 0.007433 0.000000
H783  H     H_    0.990645 0.693193 0.042584 0.000000
H784  H     H_    0.980114 0.642012 0.960607 0.000000
H785  H     H_    0.960793 0.617645 0.002800 0.000000
H786  H     H_    0.902074 0.608961 0.959021 0.000000
H787  H     H_    0.922152 0.581239 0.816990 0.000000
H788  H     H_    0.984139 0.570523 0.803670 0.000000
H789  H     H_    0.042883 0.548390 0.854075 0.000000
H790  H     H_    0.039812 0.540159 0.917899 0.000000
C712  C     C_3   0.901501 0.481121 0.963951 0.000000
N238  N     N_3   0.941839 0.518726 0.995198 0.000000
C713  C     C_3   0.933109 0.559293 0.022977 0.000000
C714  C     C_R   0.976205 0.595590 0.065237 0.000000
N239  N     N_R   0.013689 0.596313 0.062456 0.000000
C715  C     C_R   0.046948 0.629502 0.113043 0.000000
C716  C     C_R   0.092229 0.645237 0.134126 0.000000
C717  C     C_R   0.121155 0.677325 0.188270 0.000000
C718  C     C_R   0.104745 0.692042 0.220318 0.000000
C719  C     C_R   0.059079 0.675669 0.198532 0.000000
C720  C     C_R   0.030310 0.645429 0.144319 0.000000
N240  N     N_R   0.984804 0.625166 0.114848 0.000000
H791  H     H_    0.893628 0.459472 0.923628 0.000000
H792  H     H_    0.906221 0.462931 0.982890 0.000000
H793  H     H_    0.874002 0.494281 0.962742 0.000000
H794  H     H_    0.965076 0.514867 0.024091 0.000000
H795  H     H_    0.909453 0.567537 0.996064 0.000000
H796  H     H_    0.920420 0.555960 0.044303 0.000000
H797  H     H_    0.105564 0.632242 0.110060 0.000000
H798  H     H_    0.157007 0.690058 0.205914 0.000000
H799  H     H_    0.127857 0.716469 0.262726 0.000000
H800  H     H_    0.046918 0.687521 0.223832 0.000000
C721  C     C_3   0.909219 0.273440 0.014528 0.000000
N241  N     N_3   0.888445 0.299209 0.041449 0.000000
C722  C     C_3   0.881697 0.334716 0.032848 0.000000
C723  C     C_R   0.854056 0.359437 0.051094 0.000000
N242  N     N_R   0.807551 0.340518 0.023877 0.000000
C724  C     C_R   0.796075 0.377574 0.044109 0.000000
C725  C     C_R   0.755283 0.382417 0.020112 0.000000
C726  C     C_R   0.748445 0.422333 0.047082 0.000000
C727  C     C_R   0.785293 0.459679 0.092350 0.000000
C728  C     C_R   0.827797 0.456686 0.107139 0.000000
C729  C     C_R   0.832826 0.415308 0.083646 0.000000
N243  N     N_R   0.870787 0.406147 0.089095 0.000000
H801  H     H_    0.924283 0.253350 0.030093 0.000000
H802  H     H_    0.883263 0.249844 0.971384 0.000000
H803  H     H_    0.936218 0.296724 0.021368 0.000000
H804  H     H_    0.910914 0.313712 0.081606 0.000000
H805  H     H_    0.913843 0.358972 0.051914 0.000000
H806  H     H_    0.865509 0.319371 0.990921 0.000000
H807  H     H_    0.731384 0.358364 0.978715 0.000000
H808  H     H_    0.715499 0.425882 0.029778 0.000000
H809  H     H_    0.781064 0.492151 0.111596 0.000000
H810  H     H_    0.855544 0.486577 0.132006 0.000000
C730  C     C_3   0.821867 0.471661 0.987576 0.000000
N244  N     N_3   0.866500 0.503996 0.033852 0.000000
C731  C     C_3   0.873536 0.503698 0.077736 0.000000
C732  C     C_R   0.918639 0.534944 0.129189 0.000000
N245  N     N_R   0.941749 0.517595 0.157472 0.000000
C733  C     C_R   0.977326 0.554313 0.202694 0.000000
C734  C     C_R   0.012645 0.555598 0.244180 0.000000
C735  C     C_R   0.047441 0.596595 0.285845 0.000000
C736  C     C_R   0.045923 0.635092 0.285477 0.000000
C737  C     C_R   0.009542 0.633115 0.243652 0.000000
C738  C     C_R   0.975870 0.591902 0.202029 0.000000
N246  N     N_R   0.939929 0.581509 0.155534 0.000000
H811  H     H_    0.803252 0.488406 0.968665 0.000000
H812  H     H_    0.825282 0.442050 0.958666 0.000000
H813  H     H_    0.802455 0.459981 0.998890 0.000000
H814  H     H_    0.863872 0.535187 0.041876 0.000000
H815  H     H_    0.846413 0.511935 0.083541 0.000000
H816  H     H_    0.871708 0.468740 0.066882 0.000000
H817  H     H_    0.014378 0.525354 0.243510 0.000000
H818  H     H_    0.076097 0.598618 0.318733 0.000000
H819  H     H_    0.073291 0.667007 0.318348 0.000000
H820  H     H_    0.007710 0.663278 0.244500 0.000000
C739  C     C_3   0.071967 0.435188 0.278055 0.000000
N247  N     N_3   0.039364 0.459081 0.272352 0.000000
C740  C     C_3   0.998592 0.433501 0.260610 0.000000
C741  C     C_R   0.965308 0.457557 0.255222 0.000000
N248  N     N_R   0.947566 0.467446 0.285269 0.000000
C742  C     C_R   0.917016 0.485258 0.266881 0.000000
C743  C     C_R   0.881194 0.490119 0.271772 0.000000
C744  C     C_R   0.852972 0.508785 0.248809 0.000000
C745  C     C_R   0.865723 0.528362 0.229487 0.000000
C746  C     C_R   0.901511 0.521612 0.224324 0.000000
C747  C     C_R   0.920375 0.491680 0.233757 0.000000
N249  N     N_R   0.947238 0.470230 0.220049 0.000000
H821  H     H_    0.079067 0.425603 0.247351 0.000000
H822  H     H_    0.103978 0.458214 0.317614 0.000000
H823  H     H_    0.058963 0.404144 0.273965 0.000000
H824  H     H_    0.030784 0.460320 0.240101 0.000000
H825  H     H_    0.984345 0.397852 0.227069 0.000000
H826  H     H_    0.005764 0.431103 0.293199 0.000000
H827  H     H_    0.874844 0.480498 0.293125 0.000000
H828  H     H_    0.824214 0.512870 0.251636 0.000000
H829  H     H_    0.846953 0.547839 0.217081 0.000000
H830  H     H_    0.911540 0.538256 0.210818 0.000000
C748  C     C_3   0.226549 0.248581 0.545166 0.000000
N250  N     N_3   0.230376 0.261609 0.593846 0.000000
C749  C     C_3   0.189805 0.271128 0.588812 0.000000
C750  C     C_R   0.194202 0.293454 0.640255 0.000000
N251  N     N_R   0.188642 0.270224 0.660690 0.000000
C751  C     C_R   0.182162 0.301719 0.697423 0.000000
C752  C     C_R   0.174846 0.300084 0.731712 0.000000
C753  C     C_R   0.156404 0.330223 0.753818 0.000000
C754  C     C_R   0.153810 0.366541 0.749935 0.000000
C755  C     C_R   0.173253 0.373948 0.727603 0.000000
C756  C     C_R   0.183761 0.339990 0.698436 0.000000
N252  N     N_R   0.192673 0.337321 0.664372 0.000000
H831  H     H_    0.246552 0.225878 0.537793 0.000000
H832  H     H_    0.190757 0.229998 0.510896 0.000000
H833  H     H_    0.239540 0.279542 0.549061 0.000000
H834  H     H_    0.256604 0.292733 0.624493 0.000000
H835  H     H_    0.184782 0.294900 0.576680 0.000000
H836  H     H_    0.159920 0.239664 0.558672 0.000000
H837  H     H_    0.183462 0.277604 0.742960 0.000000
H838  H     H_    0.146806 0.327186 0.777137 0.000000
H839  H     H_    0.141067 0.391449 0.769169 0.000000
H840  H     H_    0.178622 0.404431 0.730963 0.000000
C757  C     C_3   0.169404 0.046242 0.610403 0.000000
N253  N     N_3   0.166003 0.082923 0.603169 0.000000
C758  C     C_3   0.123857 0.090745 0.595540 0.000000
C759  C     C_R   0.109559 0.110483 0.564169 0.000000
N254  N     N_R   0.140874 0.145754 0.576815 0.000000
C760  C     C_R   0.128249 0.133400 0.528073 0.000000
C761  C     C_R   0.152610 0.150052 0.515823 0.000000
C762  C     C_R   0.136315 0.128864 0.462739 0.000000
C763  C     C_R   0.097297 0.090743 0.423438 0.000000
C764  C     C_R   0.074143 0.073140 0.436690 0.000000
C765  C     C_R   0.089850 0.095539 0.489252 0.000000
N255  N     N_R   0.075187 0.081511 0.510670 0.000000
H841  H     H_    0.161844 0.052367 0.639719 0.000000
H842  H     H_    0.145134 0.013424 0.573164 0.000000
H843  H     H_    0.203671 0.043794 0.623359 0.000000
H844  H     H_    0.164475 0.071697 0.568481 0.000000
H845  H     H_    0.097854 0.057541 0.572009 0.000000
H846  H     H_    0.127690 0.112257 0.633870 0.000000
H847  H     H_    0.184831 0.176932 0.546725 0.000000
H848  H     H_    0.154941 0.141097 0.451829 0.000000
H849  H     H_    0.085658 0.073938 0.382285 0.000000
H850  H     H_    0.045294 0.042323 0.406887 0.000000
C766  C     C_3   0.880770 0.069720 0.541795 0.000000
N256  N     N_3   0.896606 0.074460 0.591028 0.000000
C767  C     C_3   0.903122 0.032411 0.583195 0.000000
C768  C     C_R   0.917958 0.033285 0.631356 0.000000
N257  N     N_R   0.959848 0.030211 0.658048 0.000000
C769  C     C_R   0.958818 0.026245 0.693953 0.000000
C770  C     C_R   0.992852 0.023477 0.732616 0.000000
C771  C     C_R   0.985355 0.022002 0.767375 0.000000
C772  C     C_R   0.944130 0.022129 0.762017 0.000000
C773  C     C_R   0.910311 0.024859 0.722675 0.000000
C774  C     C_R   0.919066 0.027799 0.689735 0.000000
N258  N     N_R   0.891470 0.032118 0.650372 0.000000
H851  H     H_    0.903643 0.058631 0.528716 0.000000
H852  H     H_    0.846276 0.044350 0.510583 0.000000
H853  H     H_    0.880855 0.103426 0.549099 0.000000
H854  H     H_    0.869715 0.075978 0.595001 0.000000
H855  H     H_    0.872292 0.004146 0.548065 0.000000
H856  H     H_    0.929280 0.026665 0.574678 0.000000
H857  H     H_    0.024670 0.022975 0.736213 0.000000
H858  H     H_    0.011512 0.020000 0.798388 0.000000
H859  H     H_    0.938436 0.020156 0.788853 0.000000
H860  H     H_    0.878307 0.024813 0.718524 0.000000
C775  C     C_3   0.072726 0.927534 0.545301 0.000000
N259  N     N_3   0.065941 0.970096 0.573374 0.000000
C776  C     C_3   0.021842 0.968185 0.537169 0.000000
C777  C     C_R   0.018643 0.014672 0.558428 0.000000
N260  N     N_R   0.012986 0.037364 0.599684 0.000000
C778  C     C_R   0.005797 0.074312 0.600443 0.000000
C779  C     C_R   0.993859 0.106584 0.630640 0.000000
C780  C     C_R   0.977381 0.135215 0.615921 0.000000
C781  C     C_R   0.977282 0.133846 0.575368 0.000000
C782  C     C_R   0.993838 0.103919 0.549139 0.000000
C783  C     C_R   0.006552 0.073563 0.561533 0.000000
N261  N     N_R   0.015302 0.036686 0.534403 0.000000
H861  H     H_    0.100770 0.923765 0.574440 0.000000
H862  H     H_    0.041387 0.898394 0.520971 0.000000
H863  H     H_    0.082001 0.927929 0.519489 0.000000
H864  H     H_    0.089839 0.995972 0.583149 0.000000
H865  H     H_    0.016600 0.953852 0.498199 0.000000
H866  H     H_    0.995238 0.946356 0.532282 0.000000
H867  H     H_    0.993547 0.107202 0.661741 0.000000
H868  H     H_    0.964642 0.159075 0.636393 0.000000
H869  H     H_    0.964911 0.156873 0.564931 0.000000
H870  H     H_    0.994525 0.103109 0.518274 0.000000
C784  C     C_3   0.957520 0.911310 0.680705 0.000000
N262  N     N_3   0.983583 0.928511 0.667777 0.000000
C785  C     C_3   0.952667 0.916609 0.614469 0.000000
C786  C     C_R   0.979385 0.920726 0.593789 0.000000
N263  N     N_R   0.014790 0.961273 0.627132 0.000000
C787  C     C_R   0.050472 0.947051 0.635684 0.000000
C788  C     C_R   0.093807 0.972998 0.678306 0.000000
C789  C     C_R   0.125323 0.951485 0.687991 0.000000
C790  C     C_R   0.111499 0.904317 0.657614 0.000000
C791  C     C_R   0.066520 0.878733 0.616870 0.000000
C792  C     C_R   0.036758 0.900617 0.603775 0.000000
N264  N     N_R   0.991023 0.882785 0.571935 0.000000
H871  H     H_    0.946521 0.873663 0.656265 0.000000
H872  H     H_    0.978967 0.924285 0.723205 0.000000
H873  H     H_    0.927560 0.922646 0.672888 0.000000
H874  H     H_    0.006881 0.911411 0.667903 0.000000
H875  H     H_    0.931206 0.880756 0.589371 0.000000
H876  H     H_    0.932306 0.939269 0.615742 0.000000
H877  H     H_    0.101190 0.008341 0.706205 0.000000
H878  H     H_    0.159810 0.971178 0.722071 0.000000
H879  H     H_    0.135245 0.887511 0.668611 0.000000
H880  H     H_    0.054613 0.843854 0.601835 0.000000
C793  C     C_3   0.997301 0.810775 0.640114 0.000000
N265  N     N_3   0.957230 0.773447 0.613652 0.000000
C794  C     C_3   0.928190 0.755691 0.557746 0.000000
C795  C     C_R   0.953772 0.740774 0.532754 0.000000
N266  N     N_R   0.973241 0.769385 0.526513 0.000000
C796  C     C_R   0.006803 0.754088 0.524444 0.000000
C797  C     C_R   0.039166 0.771602 0.521014 0.000000
C798  C     C_R   0.067418 0.747575 0.512926 0.000000
C799  C     C_R   0.059442 0.704624 0.502456 0.000000
C800  C     C_R   0.025612 0.687282 0.504097 0.000000
C801  C     C_R   0.002590 0.714223 0.520577 0.000000
N267  N     N_R   0.969318 0.704235 0.526332 0.000000
H881  H     H_    0.988894 0.831201 0.623503 0.000000
H882  H     H_    0.010747 0.833221 0.682960 0.000000
H883  H     H_    0.024005 0.797603 0.636163 0.000000
H884  H     H_    0.939301 0.787808 0.630434 0.000000
H885  H     H_    0.898032 0.726757 0.536739 0.000000
H886  H     H_    0.917189 0.783447 0.555478 0.000000
H887  H     H_    0.041040 0.801904 0.521380 0.000000
H888  H     H_    0.092625 0.760228 0.509396 0.000000
H889  H     H_    0.077986 0.683511 0.489966 0.000000
H890  H     H_    0.014555 0.652186 0.486853 0.000000
C802  C     C_3   0.936410 0.500217 0.492643 0.000000
N268  N     N_3   0.925872 0.541197 0.500667 0.000000
C803  C     C_3   0.936751 0.571468 0.554049 0.000000
C804  C     C_R   0.981084 0.608288 0.589913 0.000000
N269  N     N_R   0.987350 0.644015 0.586111 0.000000
C805  C     C_R   0.025389 0.675432 0.633804 0.000000
C806  C     C_R   0.047525 0.718009 0.651699 0.000000
C807  C     C_R   0.086283 0.744530 0.702707 0.000000
C808  C     C_R   0.102003 0.727994 0.734116 0.000000
C809  C     C_R   0.079364 0.684583 0.714916 0.000000
C810  C     C_R   0.041064 0.659029 0.664353 0.000000
N270  N     N_R   0.014186 0.616113 0.637264 0.000000
H891  H     H_    0.908529 0.470678 0.453460 0.000000
H892  H     H_    0.967922 0.502444 0.493778 0.000000
H893  H     H_    0.938571 0.493816 0.521237 0.000000
H894  H     H_    0.890840 0.530373 0.475998 0.000000
H895  H     H_    0.910968 0.587999 0.551261 0.000000
H896  H     H_    0.935086 0.553545 0.571632 0.000000
H897  H     H_    0.035286 0.730280 0.626882 0.000000
H898  H     H_    0.104530 0.778389 0.718253 0.000000
H899  H     H_    0.132287 0.749184 0.773842 0.000000
H900  H     H_    0.091397 0.671574 0.739046 0.000000
C811  C     C_3   0.904165 0.615563 0.349630 0.000000
N271  N     N_3   0.925954 0.585658 0.361732 0.000000
C812  C     C_3   0.905016 0.571581 0.381498 0.000000
C813  C     C_R   0.936639 0.558731 0.415838 0.000000
N272  N     N_R   0.956523 0.526354 0.400211 0.000000
C814  C     C_R   0.998080 0.545691 0.444627 0.000000
C815  C     C_R   0.035977 0.541621 0.444071 0.000000
C816  C     C_R   0.076987 0.575369 0.486903 0.000000
C817  C     C_R   0.079626 0.611792 0.530211 0.000000
C818  C     C_R   0.041563 0.614385 0.531537 0.000000
C819  C     C_R   0.000256 0.582618 0.486369 0.000000
N273  N     N_R   0.960444 0.590605 0.469645 0.000000
H901  H     H_    0.915654 0.623121 0.329102 0.000000
H902  H     H_    0.866902 0.599054 0.323728 0.000000
H903  H     H_    0.913201 0.647455 0.386751 0.000000
H904  H     H_    0.959853 0.604942 0.392375 0.000000
H905  H     H_    0.899182 0.601387 0.407085 0.000000
H906  H     H_    0.871985 0.544285 0.349157 0.000000
H907  H     H_    0.032577 0.517323 0.407583 0.000000
H908  H     H_    0.106724 0.574369 0.485666 0.000000
H909  H     H_    0.111523 0.639138 0.562745 0.000000
H910  H     H_    0.043958 0.645755 0.562429 0.000000
C820  C     C_3   0.872496 0.879731 0.375246 0.000000
N274  N     N_3   0.914218 0.869221 0.388665 0.000000
C821  C     C_3   0.918525 0.850353 0.418086 0.000000
C822  C     C_R   0.945295 0.820151 0.414180 0.000000
N275  N     N_R   0.957109 0.804129 0.377895 0.000000
C823  C     C_R   0.974008 0.772536 0.382588 0.000000
C824  C     C_R   0.997337 0.750024 0.362012 0.000000
C825  C     C_R   0.006939 0.714914 0.366748 0.000000
C826  C     C_R   0.990276 0.701353 0.388086 0.000000
C827  C     C_R   0.969456 0.726759 0.411371 0.000000
C828  C     C_R   0.967366 0.766151 0.414499 0.000000
N276  N     N_R   0.952528 0.798447 0.439350 0.000000
H911  H     H_    0.869167 0.898227 0.356722 0.000000
H912  H     H_    0.842554 0.848711 0.347520 0.000000
H913  H     H_    0.872940 0.900051 0.411571 0.000000
H914  H     H_    0.940132 0.900564 0.416352 0.000000
H915  H     H_    0.935605 0.878272 0.460342 0.000000
H916  H     H_    0.884775 0.828188 0.399972 0.000000
H917  H     H_    0.009547 0.759996 0.344518 0.000000
H918  H     H_    0.025401 0.696595 0.351401 0.000000
H919  H     H_    0.995058 0.671746 0.388256 0.000000
H920  H     H_    0.956022 0.715925 0.427067 0.000000
C829  C     C_3   0.820255 0.484774 0.873409 0.000000
N277  N     N_3   0.795259 0.510731 0.857081 0.000000
C830  C     C_3   0.799131 0.549303 0.902539 0.000000
C831  C     C_R   0.800728 0.587809 0.897800 0.000000
N278  N     N_R   0.823785 0.594847 0.878287 0.000000
C832  C     C_R   0.836035 0.640411 0.903149 0.000000
C833  C     C_R   0.864653 0.666972 0.903304 0.000000
C834  C     C_R   0.874302 0.713574 0.933426 0.000000
C835  C     C_R   0.857969 0.732649 0.965305 0.000000
C836  C     C_R   0.831064 0.705325 0.966535 0.000000
C837  C     C_R   0.818312 0.658902 0.932671 0.000000
N279  N     N_R   0.794552 0.626034 0.929075 0.000000
H921  H     H_    0.810652 0.450714 0.838308 0.000000
H922  H     H_    0.856695 0.502767 0.895119 0.000000
H923  H     H_    0.811029 0.480062 0.897176 0.000000
H924  H     H_    0.761698 0.490394 0.830634 0.000000
H925  H     H_    0.770205 0.541575 0.904674 0.000000
H926  H     H_    0.830989 0.558673 0.939348 0.000000
H927  H     H_    0.879918 0.652199 0.881454 0.000000
H928  H     H_    0.896511 0.735382 0.934190 0.000000
H929  H     H_    0.868010 0.769274 0.991216 0.000000
H930  H     H_    0.823070 0.720666 0.995725 0.000000
C838  C     C_3   0.925381 0.738216 0.094139 0.000000
N280  N     N_3   0.891919 0.707000 0.086940 0.000000
C839  C     C_3   0.886804 0.660442 0.050369 0.000000
C840  C     C_R   0.857176 0.629099 0.048647 0.000000
N281  N     N_R   0.875360 0.618932 0.085209 0.000000
C841  C     C_R   0.838479 0.599260 0.079180 0.000000
C842  C     C_R   0.836729 0.587783 0.110541 0.000000
C843  C     C_R   0.794894 0.567847 0.096944 0.000000
C844  C     C_R   0.755870 0.558844 0.051932 0.000000
C845  C     C_R   0.758425 0.571718 0.021605 0.000000
C846  C     C_R   0.800194 0.593769 0.037570 0.000000
N282  N     N_R   0.810340 0.614317 0.018577 0.000000
H931  H     H_    0.942269 0.770126 0.134204 0.000000
H932  H     H_    0.951598 0.723853 0.090854 0.000000
H933  H     H_    0.908898 0.746149 0.064511 0.000000
H934  H     H_    0.861000 0.711654 0.069245 0.000000
H935  H     H_    0.873176 0.652861 0.010878 0.000000
H936  H     H_    0.920061 0.655386 0.064946 0.000000
H937  H     H_    0.866811 0.593953 0.145023 0.000000
H938  H     H_    0.792711 0.559674 0.121851 0.000000
H939  H     H_    0.723218 0.542556 0.041045 0.000000
H940  H     H_    0.728411 0.564473 0.986821 0.000000
C847  C     C_3   0.883123 0.654963 0.255584 0.000000
N283  N     N_3   0.920704 0.671132 0.255349 0.000000
C848  C     C_3   0.907394 0.695703 0.230969 0.000000
C849  C     C_R   0.946328 0.720358 0.238245 0.000000
N284  N     N_R   0.964838 0.767347 0.271673 0.000000
C850  C     C_R   0.990904 0.776158 0.257236 0.000000
C851  C     C_R   0.015359 0.818082 0.275640 0.000000
C852  C     C_R   0.036355 0.819808 0.251663 0.000000
C853  C     C_R   0.030526 0.780131 0.208332 0.000000
C854  C     C_R   0.004474 0.738385 0.189364 0.000000
C855  C     C_R   0.986984 0.736705 0.216274 0.000000
N285  N     N_R   0.959828 0.699904 0.203783 0.000000
H941  H     H_    0.884690 0.623881 0.254826 0.000000
H942  H     H_    0.885469 0.681519 0.291981 0.000000
H943  H     H_    0.850480 0.646472 0.220085 0.000000
H944  H     H_    0.925883 0.642764 0.231467 0.000000
H945  H     H_    0.882928 0.672094 0.188097 0.000000
H946  H     H_    0.892996 0.720304 0.248696 0.000000
H947  H     H_    0.018219 0.848972 0.307567 0.000000
H948  H     H_    0.055907 0.852354 0.265424 0.000000
H949  H     H_    0.044950 0.781938 0.187895 0.000000
H950  H     H_    0.996376 0.708716 0.152723 0.000000
C856  C     C_3   0.926086 0.350130 0.314364 0.000000
N286  N     N_3   0.914440 0.372299 0.353460 0.000000
C857  C     C_3   0.946366 0.417199 0.399162 0.000000
C858  C     C_R   0.988510 0.421611 0.403419 0.000000
N287  N     N_R   0.017577 0.401112 0.421496 0.000000
C859  C     C_R   0.046109 0.404975 0.407804 0.000000
C860  C     C_R   0.083252 0.391266 0.418381 0.000000
C861  C     C_R   0.112725 0.404931 0.409063 0.000000
C862  C     C_R   0.105425 0.433428 0.392057 0.000000
C863  C     C_R   0.067190 0.446340 0.380817 0.000000
C864  C     C_R   0.035854 0.429306 0.385736 0.000000
N288  N     N_R   0.996807 0.437910 0.378956 0.000000
H951  H     H_    0.934576 0.371817 0.304299 0.000000
H952  H     H_    0.954942 0.338934 0.328035 0.000000
H953  H     H_    0.897014 0.320051 0.276823 0.000000
H954  H     H_    0.919333 0.354180 0.369888 0.000000
H955  H     H_    0.934844 0.444019 0.395601 0.000000
H956  H     H_    0.951986 0.421388 0.435099 0.000000
H957  H     H_    0.089633 0.371238 0.434481 0.000000
H958  H     H_    0.142808 0.395364 0.417705 0.000000
H959  H     H_    0.130397 0.446331 0.388422 0.000000
H960  H     H_    0.064432 0.471226 0.371746 0.000000

loop_
_geom_bond_atom_site_label_1
_geom_bond_atom_site_label_2
_geom_bond_distance
_geom_bond_site_symmetry_2
_ccdc_geom_bond_type
Zn1   N2    2.072 .      S
Zn1   N23   2.089 1_545  S
Zn1   N32   2.123 .      S
Zn1   N62   2.179 .      S
Zn2   N3    2.047 .      S
Zn2   N8    2.109 .      S
Zn2   N75   2.105 1_545  S
Zn2   N183  2.128 .      S
Zn3   N6    2.138 .      S
Zn3   N9    2.106 .      S
Zn3   N14   2.063 .      S
Zn3   N65   2.087 .      S
Zn4   N11   2.059 .      S
Zn4   N15   2.099 .      S
Zn4   N18   2.128 .      S
Zn4   N195  2.088 .      S
Zn5   N20   2.055 .      S
Zn5   N24   2.116 .      S
Zn5   N186  2.133 .      S
Zn5   N209  2.053 .      S
Zn6   N26   2.071 .      S
Zn6   N30   2.112 .      S
Zn6   N33   2.144 .      S
Zn6   N212  2.173 1_545  S
Zn7   N36   2.067 .      S
Zn7   N39   2.101 .      S
Zn7   N216  2.072 .      S
Zn7   N227  2.037 .      S
Zn8   N42   2.064 .      S
Zn8   N44   2.067 .      S
Zn8   N170  2.077 .      S
Zn8   N188  2.055 .      S
Zn9   N47   2.141 .      S
Zn9   N51   2.116 .      S
Zn9   N165  2.054 .      S
Zn9   N191  2.187 .      S
Zn10  N53   2.084 .      S
Zn10  N57   1.998 .      S
Zn10  N59   2.090 .      S
Zn10  N167  2.095 .      S
Zn11  N63   2.174 .      S
Zn11  N66   2.044 .      S
Zn11  N198  2.183 .      S
Zn11  N206  2.073 .      S
Zn12  N68   2.080 1_556  S
Zn12  N95   2.137 .      S
Zn12  N279  2.041 .      S
Zn12  N282  2.034 1_556  S
Zn13  N72   2.046 .      S
Zn13  N179  2.075 .      S
Zn13  N275  2.065 .      S
Zn13  N284  2.074 .      S
Zn14  N21   2.158 .      S
Zn14  N69   2.139 .      S
Zn14  N71   2.126 .      S
Zn14  N74   2.160 .      S
Zn15  N5    2.161 1_455  S
Zn15  N92   2.130 .      S
Zn15  N177  2.137 .      S
Zn15  N287  2.077 .      S
Zn16  N77   2.160 .      S
Zn16  N81   2.060 .      S
Zn16  N83   2.037 .      S
Zn16  N201  2.081 .      S
Zn17  N87   2.130 .      S
Zn17  N89   2.219 .      S
Zn17  N204  2.014 .      S
Zn17  N230  2.056 .      S
Zn18  N45   2.118 .      S
Zn18  N90   2.071 1_455  S
Zn18  N93   2.110 .      S
Zn18  N270  2.031 .      S
Zn19  N50   2.122 .      S
Zn19  N60   2.133 .      S
Zn19  N84   2.046 .      S
Zn19  N96   2.090 .      S
Zn20  N98   2.045 .      S
Zn20  N101  2.043 .      S
Zn20  N104  2.098 .      S
Zn20  N107  2.109 .      S
Zn21  N99   2.056 1_556  S
Zn21  N110  2.094 .      S
Zn21  N114  2.119 1_556  S
Zn21  N116  2.082 .      S
Zn22  N102  2.072 .      S
Zn22  N119  2.089 .      S
Zn22  N123  2.076 1_554  S
Zn22  N125  2.113 .      S
Zn23  N105  2.098 .      S
Zn23  N129  2.123 .      S
Zn23  N131  2.008 .      S
Zn23  N134  2.122 .      S
Zn24  N108  2.124 .      S
Zn24  N137  2.077 .      S
Zn24  N141  2.111 .      S
Zn24  N144  2.089 .      S
Zn25  N117  2.071 .      S
Zn25  N122  2.145 .      S
Zn25  N147  2.065 .      S
Zn25  N150  2.077 .      S
Zn26  N126  2.051 .      S
Zn26  N153  2.101 1_454  S
Zn26  N155  2.029 1_554  S
Zn26  N158  2.033 .      S
Zn27  N111  2.101 .      S
Zn27  N161  2.093 .      S
Zn27  N164  2.058 .      S
Zn27  N168  2.141 .      S
Zn28  N120  2.064 1_554  S
Zn28  N140  2.095 .      S
Zn28  N171  2.089 1_554  S
Zn28  N173  2.096 .      S
Zn29  N41   2.087 .      S
Zn29  N48   2.095 .      S
Zn29  N176  2.087 .      S
Zn29  N252  2.103 .      S
Zn30  N180  2.103 1_545  S
Zn30  N182  2.118 1_455  S
Zn30  N255  2.139 .      S
Zn30  N261  2.039 .      S
Zn31  N138  2.068 1_556  S
Zn31  N185  2.123 1_556  S
Zn31  N189  2.088 .      S
Zn31  N192  2.167 .      S
Zn32  N113  2.127 .      S
Zn32  N128  2.080 .      S
Zn32  N194  2.180 .      S
Zn32  N197  2.104 .      S
Zn33  N132  2.139 .      S
Zn33  N200  2.077 .      S
Zn33  N203  2.069 .      S
Zn33  N207  2.086 .      S
Zn34  N143  2.103 .      S
Zn34  N210  1.998 .      S
Zn34  N213  2.085 .      S
Zn34  N215  2.095 .      S
Zn35  N152  2.090 .      S
Zn35  N218  2.110 .      S
Zn35  N222  2.065 .      S
Zn35  N224  2.076 .      S
Zn36  N135  2.102 .      S
Zn36  N228  2.130 .      S
Zn36  N231  2.032 .      S
Zn36  N234  2.080 .      S
Zn37  N156  2.081 .      S
Zn37  N174  2.095 1_556  S
Zn37  N237  2.112 1_455  S
Zn37  N239  2.107 1_556  S
Zn38  N159  2.075 .      S
Zn38  N243  2.088 .      S
Zn38  N245  2.067 .      S
Zn38  N249  2.123 .      S
Zn39  N146  2.005 .      S
Zn39  N162  2.064 .      S
Zn39  N251  2.140 .      S
Zn39  N254  2.160 .      S
Zn40  N149  2.138 .      S
Zn40  N257  2.068 1_455  S
Zn40  N260  2.033 .      S
Zn40  N263  2.089 1_545  S
Zn41  N29   2.084 .      S
Zn41  N56   2.077 .      S
Zn41  N78   2.080 .      S
Zn41  N225  2.080 .      S
Zn42  N233  2.131 .      S
Zn42  N267  2.152 .      S
Zn42  N269  2.031 .      S
Zn42  N273  2.091 .      S
Zn43  N38   2.085 .      S
Zn43  N264  2.134 .      S
Zn43  N266  2.096 .      S
Zn43  N276  2.157 .      S
Zn44  N80   2.108 .      S
Zn44  N86   2.090 .      S
Zn44  N236  2.125 .      S
Zn44  N278  2.070 .      S
Zn45  N240  2.126 .      S
Zn45  N246  2.110 .      S
Zn45  N281  2.026 .      S
Zn45  N285  2.120 .      S
Zn46  N17   2.084 .      S
Zn46  N248  2.023 .      S
Zn46  N272  2.090 .      S
Zn46  N288  2.161 .      S
Zn47  N27   2.053 .      S
Zn47  N35   2.049 1_545  S
Zn47  N219  2.102 .      S
Zn47  N258  2.124 .      S
Zn48  N12   2.106 1_556  S
Zn48  N54   2.142 .      S
Zn48  N221  2.072 .      S
Zn48  N242  2.103 1_556  S
C1    N1    1.457 .      S
C1    H1    1.102 .      S
C1    H2    1.107 .      S
C1    H3    1.104 .      S
N1    C2    1.440 1_565  S
N1    H4    1.042 .      S
C2    N1    1.440 1_545  S
C2    C3    1.483 .      S
C2    H5    1.098 .      S
C2    H6    1.107 .      S
C5    H7    1.057 .      S
C6    H8    1.070 .      S
C7    H9    1.079 .      S
C8    H10   1.078 .      S
C10   N4    1.454 .      S
C10   H11   1.107 .      S
C10   H12   1.109 .      S
C10   H13   1.109 .      S
N4    C11   1.449 .      S
N4    H14   1.032 .      S
C11   C12   1.506 .      S
C11   H15   1.105 .      S
C11   H16   1.107 .      S
N5    Zn15  2.161 1_655  S
C14   H17   1.081 1_655  S
C15   H18   1.079 .      S
C16   H19   1.081 .      S
C17   H20   1.080 .      S
H17   C14   1.081 1_455  S
C19   N7    1.451 .      S
C19   H21   1.102 .      S
C19   H22   1.097 .      S
C19   H23   1.107 .      S
N7    C20   1.459 .      S
N7    H24   1.042 .      S
C20   C21   1.465 .      S
C20   H25   1.074 .      S
C20   H26   1.076 .      S
C23   H27   1.071 .      S
C24   H28   1.081 .      S
C25   H29   1.081 .      S
C26   H30   1.064 .      S
C28   N10   1.455 1_556  S
C28   H31   1.106 .      S
C28   H32   1.109 .      S
C28   H33   1.109 .      S
N10   C28   1.455 1_554  S
N10   C29   1.449 .      S
N10   H34   1.044 .      S
C29   C30   1.483 .      S
C29   H35   1.099 1_554  S
C29   H36   1.107 .      S
C32   H37   1.076 .      S
C33   H38   1.080 .      S
C34   H39   1.080 .      S
C35   H40   1.064 .      S
N12   Zn48  2.106 1_554  S
H35   C29   1.099 1_556  S
C37   N13   1.452 .      S
C37   H41   1.092 .      S
C37   H42   1.089 .      S
C37   H43   1.107 .      S
N13   C38   1.445 .      S
N13   H44   1.033 .      S
C38   C39   1.464 .      S
C38   H45   1.075 .      S
C38   H46   1.083 .      S
C41   H47   1.080 .      S
C42   H48   1.081 .      S
C43   H49   1.081 .      S
C44   H50   1.076 .      S
C46   N16   1.440 .      S
C46   H51   1.098 .      S
C46   H52   1.108 .      S
C46   H53   1.093 .      S
N16   C47   1.439 .      S
N16   H54   1.041 .      S
C47   C48   1.461 .      S
C47   H55   1.091 .      S
C47   H56   1.103 .      S
C50   H57   1.073 .      S
C51   H58   1.078 .      S
C52   H59   1.072 .      S
C53   H60   1.065 .      S
C55   N19   1.453 .      S
C55   H61   1.109 1_554  S
C55   H62   1.108 .      S
C55   H63   1.107 .      S
N19   C56   1.461 .      S
N19   H64   1.041 .      S
C56   C57   1.466 .      S
C56   H65   1.078 .      S
C56   H66   1.095 .      S
C59   H67   1.078 .      S
C60   H68   1.080 .      S
C61   H69   1.078 .      S
C62   H70   1.060 .      S
H61   C55   1.109 1_556  S
C64   N22   1.440 .      S
C64   H71   1.104 .      S
C64   H72   1.093 .      S
C64   H73   1.104 .      S
N22   C65   1.448 .      S
N22   H74   1.025 .      S
C65   C66   1.478 .      S
C65   H75   1.089 .      S
C65   H76   1.094 .      S
N23   Zn1   2.089 1_565  S
C68   H77   1.079 .      S
C69   H78   1.081 .      S
C70   H79   1.081 .      S
C71   H80   1.079 .      S
C73   N25   1.458 .      S
C73   H81   1.105 .      S
C73   H82   1.109 .      S
C73   H83   1.102 .      S
N25   C74   1.443 .      S
N25   H84   1.038 .      S
C74   C75   1.479 .      S
C74   H85   1.108 .      S
C74   H86   1.096 .      S
C77   H87   1.043 .      S
C78   H88   1.081 .      S
C79   H89   1.076 .      S
C80   H90   1.073 .      S
C82   N28   1.456 .      S
C82   H91   1.105 .      S
C82   H92   1.102 .      S
C82   H93   1.108 .      S
N28   C83   1.450 .      S
N28   H94   1.043 .      S
C83   C84   1.476 .      S
C83   H95   1.099 .      S
C83   H96   1.100 .      S
C86   H97   1.068 .      S
C87   H98   1.081 .      S
C88   H99   1.081 1_545  S
C89   H100  1.058 1_545  S
H99   C88   1.081 1_565  S
H100  C89   1.058 1_565  S
C91   N31   1.457 .      S
C91   H101  1.108 .      S
C91   H102  1.107 .      S
C91   H103  1.101 .      S
N31   C92   1.448 .      S
N31   H104  1.034 .      S
C92   C93   1.495 .      S
C92   H105  1.101 .      S
C92   H106  1.108 .      S
C95   H107  1.064 .      S
C96   H108  1.081 .      S
C97   H109  1.081 .      S
C98   H110  1.072 1_565  S
H110  C98   1.072 1_545  S
C100  N34   1.455 .      S
C100  H111  1.110 .      S
C100  H112  1.108 .      S
C100  H113  1.109 .      S
N34   C101  1.450 .      S
N34   H114  1.044 .      S
C101  C102  1.492 .      S
C101  H115  1.109 .      S
C101  H116  1.099 .      S
N35   Zn47  2.049 1_565  S
C104  H117  1.068 1_565  S
C105  H118  1.079 .      S
C106  H119  1.066 .      S
C107  H120  1.068 .      S
H117  C104  1.068 1_545  S
C109  N37   1.441 .      S
C109  H121  1.107 .      S
C109  H122  1.104 .      S
C109  H123  1.094 .      S
N37   C110  1.426 .      S
N37   H124  1.030 .      S
C110  C111  1.455 .      S
C110  H125  1.104 .      S
C110  H126  1.083 .      S
C113  H127  1.071 .      S
C114  H128  1.078 .      S
C115  H129  1.078 .      S
C116  H130  1.068 .      S
C118  N40   1.452 .      S
C118  H131  1.106 .      S
C118  H132  1.107 .      S
C118  H133  1.109 .      S
N40   C119  1.451 .      S
N40   H134  1.042 .      S
C119  C120  1.491 .      S
C119  H135  1.107 .      S
C119  H136  1.105 .      S
C122  H137  1.051 .      S
C123  H138  1.080 .      S
C124  H139  1.080 .      S
C125  H140  1.063 .      S
C127  N43   1.452 .      S
C127  H141  1.106 .      S
C127  H142  1.104 .      S
C127  H143  1.109 .      S
N43   C128  1.459 .      S
N43   H144  1.042 .      S
C128  C129  1.472 .      S
C128  H145  1.084 .      S
C128  H146  1.085 .      S
C131  H147  1.076 .      S
C132  H148  1.081 .      S
C133  H149  1.080 .      S
C134  H150  1.068 .      S
C136  N46   1.448 .      S
C136  H151  1.100 .      S
C136  H152  1.075 .      S
C136  H153  1.081 .      S
N46   C137  1.445 .      S
N46   H154  1.041 .      S
C137  C138  1.471 .      S
C137  H155  1.099 .      S
C137  H156  1.106 .      S
C140  H157  1.077 .      S
C141  H158  1.081 .      S
C142  H159  1.081 .      S
C143  H160  1.080 .      S
C145  N49   1.454 .      S
C145  H161  1.107 .      S
C145  H162  1.108 .      S
C145  H163  1.109 .      S
N49   C146  1.445 .      S
N49   H164  1.039 .      S
C146  C147  1.489 .      S
C146  H165  1.108 .      S
C146  H166  1.110 .      S
C149  H167  1.073 .      S
C150  H168  1.081 .      S
C151  H169  1.081 .      S
C152  H170  1.068 .      S
C154  N52   1.449 .      S
C154  H171  1.109 .      S
C154  H172  1.109 .      S
C154  H173  1.106 .      S
N52   C155  1.455 .      S
N52   H174  1.043 .      S
C155  C156  1.480 .      S
C155  H175  1.100 .      S
C155  H176  1.103 .      S
C158  H177  1.078 .      S
C159  H178  1.080 .      S
C160  H179  1.081 .      S
C161  H180  1.077 1_556  S
H180  C161  1.077 1_554  S
C163  N55   1.443 .      S
C163  H181  1.101 .      S
C163  H182  1.090 .      S
C163  H183  1.099 .      S
N55   C164  1.427 .      S
N55   H184  1.039 .      S
C164  C165  1.462 .      S
C164  H185  1.099 .      S
C164  H186  1.099 .      S
C167  H187  1.072 .      S
C168  H188  1.081 .      S
C169  H189  1.081 .      S
C170  H190  1.078 .      S
C172  N58   1.453 .      S
C172  H191  1.105 .      S
C172  H192  1.109 .      S
C172  H193  1.109 .      S
N58   C173  1.448 .      S
N58   H194  1.041 .      S
C173  C174  1.491 .      S
C173  H195  1.089 .      S
C173  H196  1.107 .      S
C176  H197  1.058 .      S
C177  H198  1.069 .      S
C178  H199  1.068 .      S
C179  H200  1.053 .      S
C181  N61   1.456 .      S
C181  H201  1.088 .      S
C181  H202  1.109 .      S
C181  H203  1.099 .      S
N61   C182  1.452 .      S
N61   H204  1.044 .      S
C182  C183  1.477 .      S
C182  H205  1.078 .      S
C182  H206  1.099 .      S
C185  H207  1.061 .      S
C186  H208  1.081 .      S
C187  H209  1.081 .      S
C188  H210  1.077 .      S
C190  N64   1.453 .      S
C190  H211  1.108 .      S
C190  H212  1.109 .      S
C190  H213  1.101 .      S
N64   C191  1.454 .      S
N64   H214  1.034 .      S
C191  C192  1.501 .      S
C191  H215  1.098 .      S
C191  H216  1.092 .      S
C194  H217  1.059 .      S
C195  H218  1.079 .      S
C196  H219  1.081 .      S
C197  H220  1.065 .      S
C199  N67   1.455 .      S
C199  H221  1.106 .      S
C199  H222  1.093 .      S
C199  H223  1.097 .      S
N67   C200  1.451 .      S
N67   H224  1.031 .      S
C200  C201  1.503 .      S
C200  H225  1.087 .      S
C200  H226  1.105 .      S
N68   Zn12  2.080 1_554  S
C203  H227  1.074 .      S
C204  H228  1.081 .      S
C205  H229  1.081 .      S
C206  H230  1.073 .      S
C208  N70   1.450 .      S
C208  H231  1.107 .      S
C208  H232  1.108 .      S
C208  H233  1.105 .      S
N70   C209  1.448 .      S
N70   H234  1.039 .      S
C209  C210  1.503 .      S
C209  H235  1.099 .      S
C209  H236  1.101 .      S
C212  H237  1.060 .      S
C213  H238  1.080 .      S
C214  H239  1.081 .      S
C215  H240  1.070 .      S
C217  N73   1.460 .      S
C217  H241  1.108 .      S
C217  H242  1.100 .      S
C217  H243  1.107 .      S
N73   C218  1.466 .      S
N73   H244  1.033 .      S
C218  C219  1.452 .      S
C218  H245  1.075 .      S
C218  H246  1.094 .      S
C221  H247  1.076 .      S
C222  H248  1.081 .      S
C223  H249  1.081 .      S
C224  H250  1.071 1_565  S
N75   Zn2   2.105 1_565  S
H250  C224  1.071 1_545  S
C226  N76   1.443 .      S
C226  H251  1.100 .      S
C226  H252  1.103 .      S
C226  H253  1.097 .      S
N76   C227  1.434 .      S
N76   H254  1.037 .      S
C227  C228  1.461 .      S
C227  H255  1.096 .      S
C227  H256  1.094 .      S
C230  H257  1.065 .      S
C231  H258  1.081 .      S
C232  H259  1.081 .      S
C233  H260  1.073 .      S
C235  N79   1.453 .      S
C235  H261  1.107 .      S
C235  H262  1.107 .      S
C235  H263  1.105 .      S
N79   C236  1.452 .      S
N79   H264  1.044 .      S
C236  C237  1.479 .      S
C236  H265  1.100 .      S
C236  H266  1.102 .      S
C239  H267  1.073 .      S
C240  H268  1.066 .      S
C241  H269  1.079 .      S
C242  H270  1.078 .      S
C244  N82   1.445 .      S
C244  H271  1.104 .      S
C244  H272  1.094 .      S
C244  H273  1.106 .      S
N82   C245  1.439 .      S
N82   H274  1.035 .      S
C245  C246  1.469 .      S
C245  H275  1.088 .      S
C245  H276  1.096 .      S
C248  H277  1.073 .      S
C249  H278  1.081 .      S
C250  H279  1.081 .      S
C251  H280  1.076 .      S
C253  N85   1.446 .      S
C253  H281  1.081 .      S
C253  H282  1.087 .      S
C253  H283  1.106 .      S
N85   C254  1.438 .      S
N85   H284  1.036 .      S
C254  C255  1.448 .      S
C254  H285  1.098 .      S
C254  H286  1.097 .      S
C257  H287  1.065 .      S
C258  H288  1.081 .      S
C259  H289  1.081 .      S
C260  H290  1.053 .      S
C262  N88   1.451 .      S
C262  H291  1.108 .      S
C262  H292  1.108 .      S
C262  H293  1.108 .      S
N88   C263  1.452 .      S
N88   H294  1.043 .      S
C263  C264  1.481 .      S
C263  H295  1.097 .      S
C263  H296  1.104 .      S
C266  H297  1.049 .      S
C267  H298  1.080 .      S
C268  H299  1.079 .      S
C269  H300  1.080 1_655  S
N90   Zn18  2.071 1_655  S
H300  C269  1.080 1_455  S
C271  N91   1.444 .      S
C271  H301  1.105 .      S
C271  H302  1.106 .      S
C271  H303  1.108 .      S
N91   C272  1.445 .      S
N91   H304  1.041 .      S
C272  C273  1.473 1_655  S
C272  H305  1.105 .      S
C272  H306  1.109 .      S
C273  C272  1.473 1_455  S
C275  H307  1.058 .      S
C276  H308  1.081 .      S
C277  H309  1.077 .      S
C278  H310  1.063 .      S
C280  N94   1.454 .      S
C280  H311  1.109 .      S
C280  H312  1.108 .      S
C280  H313  1.108 .      S
N94   C281  1.456 .      S
N94   H314  1.038 .      S
C281  C282  1.489 .      S
C281  H315  1.098 .      S
C281  H316  1.093 .      S
C284  H317  1.066 .      S
C285  H318  1.074 1_556  S
C286  H319  1.080 .      S
C287  H320  1.078 .      S
H318  C285  1.074 1_554  S
C289  N97   1.453 1_556  S
C289  H321  1.099 .      S
C289  H322  1.108 .      S
C289  H323  1.100 .      S
N97   C289  1.453 1_554  S
N97   C290  1.445 .      S
N97   H324  1.035 .      S
C290  C291  1.473 .      S
C290  H325  1.078 .      S
C290  H326  1.103 .      S
C293  H327  1.067 .      S
C294  H328  1.081 .      S
C295  H329  1.081 .      S
C296  H330  1.069 .      S
N99   Zn21  2.056 1_554  S
C298  N100  1.428 .      S
C298  H331  1.100 1_554  S
C298  H332  1.100 .      S
C298  H333  1.102 .      S
N100  C299  1.428 .      S
N100  H334  1.034 .      S
C299  C300  1.434 .      S
C299  H335  1.076 .      S
C299  H336  1.098 .      S
C302  H337  1.081 .      S
C303  H338  1.081 .      S
C304  H339  1.081 .      S
C305  H340  1.080 .      S
H331  C298  1.100 1_556  S
C307  N103  1.453 .      S
C307  H341  1.109 .      S
C307  H342  1.108 .      S
C307  H343  1.108 .      S
N103  C308  1.454 .      S
N103  H344  1.042 .      S
C308  C309  1.482 .      S
C308  H345  1.101 .      S
C308  H346  1.095 .      S
C311  H347  1.076 .      S
C312  H348  1.081 .      S
C313  H349  1.080 .      S
C314  H350  1.070 .      S
C316  N106  1.452 .      S
C316  H351  1.107 .      S
C316  H352  1.109 .      S
C316  H353  1.109 .      S
N106  C317  1.452 .      S
N106  H354  1.041 .      S
C317  C318  1.489 .      S
C317  H355  1.107 .      S
C317  H356  1.105 .      S
C320  H357  1.065 .      S
C321  H358  1.081 .      S
C322  H359  1.077 .      S
C323  H360  1.065 .      S
C325  N109  1.459 .      S
C325  H361  1.108 .      S
C325  H362  1.105 .      S
C325  H363  1.107 .      S
N109  C326  1.459 .      S
N109  H364  1.043 .      S
C326  C327  1.478 .      S
C326  H365  1.103 .      S
C326  H366  1.101 .      S
C329  H367  1.054 .      S
C330  H368  1.081 .      S
C331  H369  1.077 .      S
C332  H370  1.071 .      S
C334  N112  1.446 .      S
C334  H371  1.092 .      S
C334  H372  1.108 .      S
C334  H373  1.081 .      S
N112  C335  1.432 .      S
N112  H374  1.041 .      S
C335  C336  1.448 .      S
C335  H375  1.080 .      S
C335  H376  1.082 .      S
C338  H377  1.069 .      S
C339  H378  1.081 .      S
C340  H379  1.081 .      S
C341  H380  1.072 .      S
N114  Zn21  2.119 1_554  S
C343  N115  1.441 .      S
C343  H381  1.101 .      S
C343  H382  1.101 .      S
C343  H383  1.102 .      S
N115  C344  1.453 .      S
N115  H384  1.030 .      S
C344  C345  1.491 .      S
C344  H385  1.107 .      S
C344  H386  1.107 .      S
C347  H387  1.071 .      S
C348  H388  1.081 .      S
C349  H389  1.081 .      S
C350  H390  1.075 .      S
C352  N118  1.456 .      S
C352  H391  1.102 .      S
C352  H392  1.108 .      S
C352  H393  1.105 .      S
N118  C353  1.451 .      S
N118  H394  1.041 .      S
C353  C354  1.493 .      S
C353  H395  1.106 .      S
C353  H396  1.099 .      S
C356  H397  1.065 .      S
C357  H398  1.075 .      S
C358  H399  1.064 .      S
C359  H400  1.056 .      S
N120  Zn28  2.064 1_556  S
C361  N121  1.449 1_554  S
C361  H401  1.109 .      S
C361  H402  1.108 .      S
C361  H403  1.107 .      S
N121  C361  1.449 1_556  S
N121  C362  1.456 .      S
N121  H404  1.044 1_556  S
C362  C363  1.485 .      S
C362  H405  1.108 1_556  S
C362  H406  1.107 .      S
C365  H407  1.068 .      S
C366  H408  1.079 .      S
C367  H409  1.075 .      S
C368  H410  1.073 .      S
N123  Zn22  2.076 1_556  S
H404  N121  1.044 1_554  S
H405  C362  1.108 1_554  S
C370  N124  1.453 .      S
C370  H411  1.106 .      S
C370  H412  1.109 .      S
C370  H413  1.107 .      S
N124  C371  1.448 .      S
N124  H414  1.044 .      S
C371  C372  1.479 1_556  S
C371  H415  1.101 .      S
C371  H416  1.099 .      S
C372  C371  1.479 1_554  S
C374  H417  1.066 .      S
C375  H418  1.081 .      S
C376  H419  1.081 .      S
C377  H420  1.070 .      S
C379  N127  1.453 .      S
C379  H421  1.109 .      S
C379  H422  1.107 .      S
C379  H423  1.108 .      S
N127  C380  1.453 .      S
N127  H424  1.040 .      S
C380  C381  1.495 .      S
C380  H425  1.103 .      S
C380  H426  1.104 .      S
C383  H427  1.080 .      S
C384  H428  1.081 .      S
C385  H429  1.081 .      S
C386  H430  1.061 .      S
C388  N130  1.449 .      S
C388  H431  1.100 .      S
C388  H432  1.102 .      S
C388  H433  1.093 .      S
N130  C389  1.444 .      S
N130  H434  1.034 .      S
C389  C390  1.476 .      S
C389  H435  1.093 .      S
C389  H436  1.097 .      S
C392  H437  1.076 .      S
C393  H438  1.081 .      S
C394  H439  1.081 .      S
C395  H440  1.062 .      S
C397  N133  1.447 .      S
C397  H441  1.109 .      S
C397  H442  1.106 .      S
C397  H443  1.106 .      S
N133  C398  1.455 .      S
N133  H444  1.044 .      S
C398  C399  1.485 .      S
C398  H445  1.108 .      S
C398  H446  1.104 .      S
C401  H447  1.079 .      S
C402  H448  1.075 .      S
C403  H449  1.075 .      S
C404  H450  1.075 .      S
C406  N136  1.451 .      S
C406  H451  1.107 .      S
C406  H452  1.109 .      S
C406  H453  1.109 .      S
N136  C407  1.448 .      S
N136  H454  1.043 .      S
C407  C408  1.480 .      S
C407  H455  1.098 .      S
C407  H456  1.108 .      S
C410  H457  1.067 .      S
C411  H458  1.074 .      S
C412  H459  1.077 .      S
C413  H460  1.057 .      S
N138  Zn31  2.068 1_554  S
C415  N139  1.455 .      S
C415  H461  1.086 .      S
C415  H462  1.093 .      S
C415  H463  1.089 .      S
N139  C416  1.426 1_556  S
N139  H464  1.033 .      S
C416  N139  1.426 1_554  S
C416  C417  1.459 .      S
C416  H465  1.095 .      S
C416  H466  1.103 .      S
C419  H467  1.073 .      S
C420  H468  1.081 .      S
C421  H469  1.081 .      S
C422  H470  1.070 .      S
C424  N142  1.452 .      S
C424  H471  1.107 .      S
C424  H472  1.109 .      S
C424  H473  1.109 .      S
N142  C425  1.452 .      S
N142  H474  1.044 .      S
C425  C426  1.485 .      S
C425  H475  1.107 .      S
C425  H476  1.106 .      S
C428  H477  1.055 .      S
C429  H478  1.077 .      S
C430  H479  1.081 .      S
C431  H480  1.057 .      S
C433  N145  1.447 .      S
C433  H481  1.104 .      S
C433  H482  1.101 .      S
C433  H483  1.105 .      S
N145  C434  1.447 .      S
N145  H484  1.036 .      S
C434  C435  1.472 .      S
C434  H485  1.100 .      S
C434  H486  1.101 .      S
C437  H487  1.080 .      S
C438  H488  1.080 .      S
C439  H489  1.079 .      S
C440  H490  1.077 .      S
C442  N148  1.451 .      S
C442  H491  1.108 .      S
C442  H492  1.103 .      S
C442  H493  1.105 .      S
N148  C443  1.461 .      S
N148  H494  1.043 .      S
C443  C444  1.487 .      S
C443  H495  1.102 .      S
C443  H496  1.106 .      S
C446  H497  1.065 .      S
C447  H498  1.081 .      S
C448  H499  1.081 .      S
C449  H500  1.073 .      S
C451  N151  1.444 .      S
C451  H501  1.103 .      S
C451  H502  1.097 .      S
C451  H503  1.108 .      S
N151  C452  1.424 .      S
N151  H504  1.037 .      S
C452  C453  1.474 .      S
C452  H505  1.107 .      S
C452  H506  1.105 .      S
C455  H507  1.077 .      S
C456  H508  1.081 .      S
C457  H509  1.081 .      S
C458  H510  1.073 .      S
N153  Zn26  2.101 1_656  S
C460  N154  1.455 .      S
C460  H511  1.108 .      S
C460  H512  1.106 .      S
C460  H513  1.105 .      S
N154  C461  1.449 .      S
N154  H514  1.037 .      S
C461  C462  1.500 .      S
C461  H515  1.108 .      S
C461  H516  1.097 .      S
N155  Zn26  2.029 1_556  S
C464  H517  1.074 .      S
C465  H518  1.081 .      S
C466  H519  1.077 .      S
C467  H520  1.065 .      S
C469  N157  1.440 .      S
C469  H521  1.106 .      S
C469  H522  1.088 .      S
C469  H523  1.094 1_455  S
N157  C470  1.451 1_455  S
N157  H524  1.039 .      S
C470  N157  1.451 1_655  S
C470  C471  1.453 .      S
C470  H525  1.095 .      S
C470  H526  1.096 .      S
C473  H527  1.072 .      S
C474  H528  1.081 .      S
C475  H529  1.081 .      S
C476  H530  1.060 .      S
H523  C469  1.094 1_655  S
C478  N160  1.451 .      S
C478  H531  1.106 .      S
C478  H532  1.102 .      S
C478  H533  1.109 .      S
N160  C479  1.448 .      S
N160  H534  1.037 .      S
C479  C480  1.487 .      S
C479  H535  1.101 .      S
C479  H536  1.105 .      S
C482  H537  1.075 .      S
C483  H538  1.081 .      S
C484  H539  1.081 .      S
C485  H540  1.077 .      S
C487  N163  1.444 .      S
C487  H541  1.109 .      S
C487  H542  1.105 .      S
C487  H543  1.106 .      S
N163  C488  1.453 .      S
N163  H544  1.039 .      S
C488  C489  1.499 .      S
C488  H545  1.095 .      S
C488  H546  1.094 .      S
C491  H547  1.079 .      S
C492  H548  1.079 .      S
C493  H549  1.077 .      S
C494  H550  1.078 .      S
C496  N166  1.435 .      S
C496  H551  1.101 .      S
C496  H552  1.087 .      S
C496  H553  1.103 .      S
N166  C497  1.429 .      S
N166  H554  1.034 .      S
C497  C498  1.438 .      S
C497  H555  1.079 .      S
C497  H556  1.109 .      S
C500  H557  1.078 .      S
C501  H558  1.080 .      S
C502  H559  1.080 .      S
C503  H560  1.058 .      S
C505  N169  1.453 1_554  S
C505  H561  1.105 .      S
C505  H562  1.110 1_554  S
C505  H563  1.109 .      S
N169  C505  1.453 1_556  S
N169  C506  1.442 .      S
N169  H564  1.042 .      S
C506  C507  1.492 .      S
C506  H565  1.105 1_556  S
C506  H566  1.107 .      S
C509  H567  1.075 .      S
C510  H568  1.077 .      S
C511  H569  1.081 .      S
C512  H570  1.060 .      S
N171  Zn28  2.089 1_556  S
H562  C505  1.110 1_556  S
H565  C506  1.105 1_554  S
C514  N172  1.445 .      S
C514  H571  1.107 .      S
C514  H572  1.104 .      S
C514  H573  1.105 .      S
N172  C515  1.439 .      S
N172  H574  1.030 .      S
C515  C516  1.477 1_556  S
C515  H575  1.079 .      S
C515  H576  1.081 .      S
C516  C515  1.477 1_554  S
C518  H577  1.077 .      S
C519  H578  1.081 .      S
C520  H579  1.081 .      S
C521  H580  1.081 .      S
N174  Zn37  2.095 1_554  S
C523  N175  1.452 .      S
C523  H581  1.108 .      S
C523  H582  1.107 .      S
C523  H583  1.102 .      S
N175  C524  1.458 .      S
N175  H584  1.044 .      S
C524  C525  1.479 .      S
C524  H585  1.099 .      S
C524  H586  1.071 .      S
C527  H587  1.061 .      S
C528  H588  1.076 .      S
C529  H589  1.080 .      S
C530  H590  1.054 .      S
C532  N178  1.454 .      S
C532  H591  1.109 .      S
C532  H592  1.104 .      S
C532  H593  1.107 1_655  S
N178  C533  1.461 .      S
N178  H594  1.036 .      S
C533  C534  1.462 .      S
C533  H595  1.086 .      S
C533  H596  1.100 .      S
C536  H597  1.079 .      S
C537  H598  1.081 .      S
C538  H599  1.081 .      S
C539  H600  1.076 1_565  S
N180  Zn30  2.103 1_565  S
H593  C532  1.107 1_455  S
H600  C539  1.076 1_545  S
C541  N181  1.449 1_455  S
C541  H601  1.107 .      S
C541  H602  1.109 .      S
C541  H603  1.107 1_455  S
N181  C541  1.449 1_655  S
N181  C542  1.445 .      S
N181  H604  1.044 .      S
C542  C543  1.472 .      S
C542  H605  1.100 .      S
C542  H606  1.106 .      S
N182  Zn30  2.118 1_655  S
C545  H607  1.062 .      S
C546  H608  1.075 .      S
C547  H609  1.079 .      S
C548  H610  1.069 .      S
H603  C541  1.107 1_655  S
C550  N184  1.447 1_556  S
C550  H611  1.106 1_556  S
C550  H612  1.104 .      S
C550  H613  1.109 .      S
N184  C550  1.447 1_554  S
N184  C551  1.449 .      S
N184  H614  1.044 .      S
C551  C552  1.471 .      S
C551  H615  1.103 1_554  S
C551  H616  1.102 .      S
N185  Zn31  2.123 1_554  S
C554  H617  1.065 .      S
C555  H618  1.081 .      S
C556  H619  1.080 .      S
C557  H620  1.070 .      S
H611  C550  1.106 1_554  S
H615  C551  1.103 1_556  S
C559  N187  1.454 .      S
C559  H621  1.101 .      S
C559  H622  1.088 .      S
C559  H623  1.104 .      S
N187  C560  1.451 .      S
N187  H624  1.031 .      S
C560  C561  1.483 .      S
C560  H625  1.100 .      S
C560  H626  1.086 .      S
C563  H627  1.080 .      S
C564  H628  1.081 .      S
C565  H629  1.081 .      S
C566  H630  1.078 .      S
C568  N190  1.454 .      S
C568  H631  1.106 .      S
C568  H632  1.109 1_556  S
C568  H633  1.109 1_556  S
N190  C569  1.440 .      S
N190  H634  1.037 .      S
C569  C570  1.493 .      S
C569  H635  1.108 .      S
C569  H636  1.109 .      S
C572  H637  1.075 .      S
C573  H638  1.081 .      S
C574  H639  1.081 .      S
C575  H640  1.070 .      S
H632  C568  1.109 1_554  S
H633  C568  1.109 1_554  S
C577  N193  1.454 .      S
C577  H641  1.107 .      S
C577  H642  1.108 .      S
C577  H643  1.105 .      S
N193  C578  1.453 .      S
N193  H644  1.038 .      S
C578  C579  1.494 .      S
C578  H645  1.106 .      S
C578  H646  1.102 .      S
C581  H647  1.068 .      S
C582  H648  1.075 .      S
C583  H649  1.081 .      S
C584  H650  1.080 .      S
C586  N196  1.457 .      S
C586  H651  1.101 .      S
C586  H652  1.078 .      S
C586  H653  1.093 .      S
N196  C587  1.456 .      S
N196  H654  1.034 .      S
C587  C588  1.463 .      S
C587  H655  1.087 .      S
C587  H656  1.099 .      S
C590  H657  1.075 .      S
C591  H658  1.081 .      S
C592  H659  1.081 .      S
C593  H660  1.071 .      S
C595  N199  1.456 .      S
C595  H661  1.109 .      S
C595  H662  1.105 .      S
C595  H663  1.109 .      S
N199  C596  1.457 .      S
N199  H664  1.040 .      S
C596  C597  1.475 .      S
C596  H665  1.088 .      S
C596  H666  1.104 .      S
C599  H667  1.078 .      S
C600  H668  1.081 .      S
C601  H669  1.081 .      S
C602  H670  1.080 .      S
C604  N202  1.445 .      S
C604  H671  1.102 .      S
C604  H672  1.106 .      S
C604  H673  1.108 .      S
N202  C605  1.452 .      S
N202  H674  1.030 .      S
C605  C606  1.475 .      S
C605  H675  1.083 .      S
C605  H676  1.092 .      S
C608  H677  1.056 .      S
C609  H678  1.081 .      S
C610  H679  1.081 .      S
C611  H680  1.057 .      S
C613  N205  1.455 .      S
C613  H681  1.108 .      S
C613  H682  1.109 .      S
C613  H683  1.108 .      S
N205  C614  1.454 .      S
N205  H684  1.044 .      S
C614  C615  1.480 .      S
C614  H685  1.103 .      S
C614  H686  1.107 .      S
C617  H687  1.042 .      S
C618  H688  1.064 .      S
C619  H689  1.070 .      S
C620  H690  1.044 .      S
C622  N208  1.454 .      S
C622  H691  1.101 .      S
C622  H692  1.106 .      S
C622  H693  1.103 .      S
N208  C623  1.450 .      S
N208  H694  1.044 .      S
C623  C624  1.483 .      S
C623  H695  1.105 .      S
C623  H696  1.105 .      S
C626  H697  1.055 .      S
C627  H698  1.073 .      S
C628  H699  1.081 .      S
C629  H700  1.056 .      S
C631  N211  1.449 .      S
C631  H701  1.099 .      S
C631  H702  1.106 .      S
C631  H703  1.105 .      S
N211  C632  1.448 .      S
N211  H704  1.041 .      S
C632  C633  1.475 .      S
C632  H705  1.100 .      S
C632  H706  1.101 .      S
N212  Zn6   2.173 1_565  S
C635  H707  1.075 .      S
C636  H708  1.081 .      S
C637  H709  1.081 .      S
C638  H710  1.069 .      S
C640  N214  1.453 .      S
C640  H711  1.105 .      S
C640  H712  1.103 .      S
C640  H713  1.108 .      S
N214  C641  1.455 .      S
N214  H714  1.042 .      S
C641  C642  1.485 .      S
C641  H715  1.105 .      S
C641  H716  1.106 .      S
C644  H717  1.072 .      S
C645  H718  1.076 .      S
C646  H719  1.081 .      S
C647  H720  1.062 .      S
C649  N217  1.453 .      S
C649  H721  1.109 .      S
C649  H722  1.107 .      S
C649  H723  1.101 1_545  S
N217  C650  1.453 .      S
N217  H724  1.042 .      S
C650  C651  1.478 .      S
C650  H725  1.101 .      S
C650  H726  1.103 .      S
C653  H727  1.055 .      S
C654  H728  1.079 .      S
C655  H729  1.081 .      S
C656  H730  1.054 .      S
H723  C649  1.101 1_565  S
C658  N220  1.460 .      S
C658  H731  1.104 .      S
C658  H732  1.100 .      S
C658  H733  1.099 .      S
N220  C659  1.446 .      S
N220  H734  1.040 .      S
C659  C660  1.461 .      S
C659  H735  1.093 .      S
C659  H736  1.074 .      S
C662  H737  1.080 .      S
C663  H738  1.081 .      S
C664  H739  1.081 .      S
C665  H740  1.076 .      S
C667  N223  1.453 .      S
C667  H741  1.109 .      S
C667  H742  1.107 .      S
C667  H743  1.104 .      S
N223  C668  1.455 .      S
N223  H744  1.043 .      S
C668  C669  1.484 .      S
C668  H745  1.106 .      S
C668  H746  1.101 .      S
C671  H747  1.067 .      S
C672  H748  1.081 .      S
C673  H749  1.080 .      S
C674  H750  1.071 .      S
C676  N226  1.455 .      S
C676  H751  1.107 .      S
C676  H752  1.109 .      S
C676  H753  1.108 .      S
N226  C677  1.450 .      S
N226  H754  1.044 .      S
C677  C678  1.485 .      S
C677  H755  1.103 .      S
C677  H756  1.104 .      S
C680  H757  1.078 .      S
C681  H758  1.076 .      S
C682  H759  1.081 .      S
C683  H760  1.058 .      S
C685  N229  1.443 .      S
C685  H761  1.109 .      S
C685  H762  1.097 .      S
C685  H763  1.103 .      S
N229  C686  1.444 .      S
N229  H764  1.039 .      S
C686  C687  1.473 .      S
C686  H765  1.105 .      S
C686  H766  1.103 .      S
C689  H767  1.079 .      S
C690  H768  1.081 .      S
C691  H769  1.081 .      S
C692  H770  1.081 .      S
C694  N232  1.458 .      S
C694  H771  1.105 .      S
C694  H772  1.107 .      S
C694  H773  1.107 .      S
N232  C695  1.442 .      S
N232  H774  1.033 .      S
C695  C696  1.483 .      S
C695  H775  1.105 .      S
C695  H776  1.092 .      S
C698  H777  1.045 .      S
C699  H778  1.078 .      S
C700  H779  1.076 .      S
C701  H780  1.059 .      S
C703  N235  1.449 1_554  S
C703  H781  1.109 .      S
C703  H782  1.103 .      S
C703  H783  1.109 .      S
N235  C703  1.449 1_556  S
N235  C704  1.456 .      S
N235  H784  1.043 .      S
C704  C705  1.481 .      S
C704  H785  1.090 1_556  S
C704  H786  1.104 .      S
C707  H787  1.067 .      S
C708  H788  1.081 .      S
C709  H789  1.081 .      S
C710  H790  1.064 .      S
N237  Zn37  2.112 1_655  S
H785  C704  1.090 1_554  S
C712  N238  1.430 .      S
C712  H791  1.095 .      S
C712  H792  1.102 .      S
C712  H793  1.088 .      S
N238  C713  1.437 1_556  S
N238  H794  1.036 1_556  S
C713  N238  1.437 1_554  S
C713  C714  1.446 .      S
C713  H795  1.102 1_554  S
C713  H796  1.085 .      S
N239  Zn37  2.107 1_554  S
C716  H797  1.072 .      S
C717  H798  1.081 .      S
C718  H799  1.081 .      S
C719  H800  1.072 .      S
H794  N238  1.036 1_554  S
H795  C713  1.102 1_556  S
C721  N241  1.455 .      S
C721  H801  1.108 .      S
C721  H802  1.107 1_554  S
C721  H803  1.108 .      S
N241  C722  1.445 .      S
N241  H804  1.036 .      S
C722  C723  1.495 .      S
C722  H805  1.082 .      S
C722  H806  1.081 1_554  S
N242  Zn48  2.103 1_554  S
C725  H807  1.061 1_554  S
C726  H808  1.081 .      S
C727  H809  1.077 .      S
C728  H810  1.048 .      S
H802  C721  1.107 1_556  S
H806  C722  1.081 1_556  S
H807  C725  1.061 1_556  S
C730  N244  1.454 1_556  S
C730  H811  1.108 .      S
C730  H812  1.106 .      S
C730  H813  1.103 .      S
N244  C730  1.454 1_554  S
N244  C731  1.436 .      S
N244  H814  1.028 .      S
C731  C732  1.503 .      S
C731  H815  1.096 .      S
C731  H816  1.105 .      S
C734  H817  1.076 .      S
C735  H818  1.081 .      S
C736  H819  1.081 .      S
C737  H820  1.070 .      S
C739  N247  1.454 .      S
C739  H821  1.108 .      S
C739  H822  1.108 .      S
C739  H823  1.108 .      S
N247  C740  1.456 1_455  S
N247  H824  1.042 .      S
C740  N247  1.456 1_655  S
C740  C741  1.476 .      S
C740  H825  1.091 .      S
C740  H826  1.090 1_655  S
C743  H827  1.065 .      S
C744  H828  1.081 .      S
C745  H829  1.080 .      S
C746  H830  1.064 .      S
H826  C740  1.090 1_455  S
C748  N250  1.455 .      S
C748  H831  1.108 .      S
C748  H832  1.108 .      S
C748  H833  1.109 .      S
N250  C749  1.441 .      S
N250  H834  1.043 .      S
C749  C750  1.483 .      S
C749  H835  1.108 .      S
C749  H836  1.106 .      S
C752  H837  1.051 .      S
C753  H838  1.068 .      S
C754  H839  1.081 .      S
C755  H840  1.042 .      S
C757  N253  1.453 .      S
C757  H841  1.100 .      S
C757  H842  1.095 .      S
C757  H843  1.105 .      S
N253  C758  1.455 .      S
N253  H844  1.042 .      S
C758  C759  1.486 .      S
C758  H845  1.101 .      S
C758  H846  1.099 .      S
C761  H847  1.076 .      S
C762  H848  1.081 .      S
C763  H849  1.081 .      S
C764  H850  1.076 .      S
C766  N256  1.445 .      S
C766  H851  1.104 .      S
C766  H852  1.107 .      S
C766  H853  1.104 .      S
N256  C767  1.438 .      S
N256  H854  1.030 .      S
C767  C768  1.487 .      S
C767  H855  1.087 .      S
C767  H856  1.100 .      S
N257  Zn40  2.068 1_655  S
C770  H857  1.081 1_655  S
C771  H858  1.081 1_655  S
C772  H859  1.081 .      S
C773  H860  1.078 .      S
H857  C770  1.081 1_455  S
H858  C771  1.081 1_455  S
C775  N259  1.452 .      S
C775  H861  1.108 .      S
C775  H862  1.109 .      S
C775  H863  1.102 .      S
N259  C776  1.448 .      S
N259  H864  1.038 .      S
C776  C777  1.485 1_565  S
C776  H865  1.102 .      S
C776  H866  1.104 1_455  S
C777  C776  1.485 1_545  S
C779  H867  1.080 .      S
C780  H868  1.081 .      S
C781  H869  1.081 .      S
C782  H870  1.075 .      S
H866  C776  1.104 1_655  S
C784  N262  1.446 .      S
C784  H871  1.106 .      S
C784  H872  1.109 .      S
C784  H873  1.109 .      S
N262  C785  1.452 .      S
N262  H874  1.042 1_655  S
C785  C786  1.482 .      S
C785  H875  1.101 .      S
C785  H876  1.099 .      S
N263  Zn40  2.089 1_565  S
C788  H877  1.070 1_565  S
C789  H878  1.081 .      S
C790  H879  1.081 .      S
C791  H880  1.065 .      S
H874  N262  1.042 1_455  S
H877  C788  1.070 1_545  S
C793  N265  1.457 .      S
C793  H881  1.107 .      S
C793  H882  1.109 1_655  S
C793  H883  1.107 1_655  S
N265  C794  1.454 .      S
N265  H884  1.043 .      S
C794  C795  1.480 .      S
C794  H885  1.104 .      S
C794  H886  1.102 .      S
C797  H887  1.079 .      S
C798  H888  1.081 .      S
C799  H889  1.081 .      S
C800  H890  1.051 .      S
H882  C793  1.109 1_455  S
H883  C793  1.107 1_455  S
C802  N268  1.447 .      S
C802  H891  1.101 .      S
C802  H892  1.104 .      S
C802  H893  1.099 .      S
N268  C803  1.449 .      S
N268  H894  1.038 .      S
C803  C804  1.484 .      S
C803  H895  1.095 .      S
C803  H896  1.102 .      S
C806  H897  1.077 .      S
C807  H898  1.081 .      S
C808  H899  1.081 .      S
C809  H900  1.079 .      S
C811  N271  1.450 .      S
C811  H901  1.104 .      S
C811  H902  1.108 .      S
C811  H903  1.102 .      S
N271  C812  1.449 .      S
N271  H904  1.043 .      S
C812  C813  1.485 .      S
C812  H905  1.107 .      S
C812  H906  1.102 .      S
C815  H907  1.072 .      S
C816  H908  1.081 .      S
C817  H909  1.081 .      S
C818  H910  1.070 .      S
C820  N274  1.452 .      S
C820  H911  1.107 .      S
C820  H912  1.102 .      S
C820  H913  1.099 .      S
N274  C821  1.440 .      S
N274  H914  1.041 .      S
C821  C822  1.457 .      S
C821  H915  1.101 .      S
C821  H916  1.103 .      S
C824  H917  1.072 1_655  S
C825  H918  1.075 .      S
C826  H919  1.080 .      S
C827  H920  1.063 .      S
H917  C824  1.072 1_455  S
C829  N277  1.436 .      S
C829  H921  1.102 .      S
C829  H922  1.105 .      S
C829  H923  1.104 .      S
N277  C830  1.437 .      S
N277  H924  1.031 .      S
C830  C831  1.471 .      S
C830  H925  1.106 .      S
C830  H926  1.107 .      S
C833  H927  1.079 .      S
C834  H928  1.081 .      S
C835  H929  1.081 .      S
C836  H930  1.073 .      S
C838  N280  1.453 .      S
C838  H931  1.104 .      S
C838  H932  1.102 .      S
C838  H933  1.103 .      S
N280  C839  1.452 .      S
N280  H934  1.042 .      S
C839  C840  1.482 .      S
C839  H935  1.095 .      S
C839  H936  1.106 .      S
C842  H937  1.072 .      S
C843  H938  1.078 .      S
C844  H939  1.081 .      S
C845  H940  1.063 1_554  S
N282  Zn12  2.034 1_554  S
H940  C845  1.063 1_556  S
C847  N283  1.451 .      S
C847  H941  1.104 .      S
C847  H942  1.109 .      S
C847  H943  1.107 .      S
N283  C848  1.449 .      S
N283  H944  1.039 .      S
C848  C849  1.468 .      S
C848  H945  1.093 .      S
C848  H946  1.098 .      S
C851  H947  1.071 .      S
C852  H948  1.081 .      S
C853  H949  1.081 .      S
C854  H950  1.069 1_455  S
H950  C854  1.069 1_655  S
C856  N286  1.465 .      S
C856  H951  1.085 .      S
C856  H952  1.089 .      S
C856  H953  1.104 .      S
N286  C857  1.446 .      S
N286  H954  1.029 .      S
C857  C858  1.433 .      S
C857  H955  1.093 .      S
C857  H956  1.100 .      S
C860  H957  1.080 .      S
C861  H958  1.081 .      S
C862  H959  1.080 .      S
C863  H960  1.076 .      S
C3    N2    1.381 .      A
C3    N3    1.380 .      A
N2    C4    1.344 .      A
C4    C5    1.352 .      A
C4    C9    1.354 .      A
C5    C6    1.376 .      A
C6    C7    1.388 .      A
C7    C8    1.377 .      A
C8    C9    1.372 .      A
C9    N3    1.337 .      A
C12   N5    1.399 .      A
C12   N6    1.395 .      A
N5    C13   1.350 .      A
C13   C14   1.374 .      A
C13   C18   1.371 .      A
C14   C15   1.386 .      A
C15   C16   1.389 .      A
C16   C17   1.382 .      A
C17   C18   1.368 .      A
C18   N6    1.343 .      A
C21   N8    1.383 .      A
C21   N9    1.384 .      A
N8    C22   1.348 .      A
C22   C23   1.373 .      A
C22   C27   1.367 .      A
C23   C24   1.383 .      A
C24   C25   1.387 .      A
C25   C26   1.382 .      A
C26   C27   1.368 .      A
C27   N9    1.348 .      A
C30   N11   1.381 .      A
C30   N12   1.382 .      A
N11   C31   1.345 .      A
C31   C32   1.376 .      A
C31   C36   1.361 .      A
C32   C33   1.379 .      A
C33   C34   1.382 .      A
C34   C35   1.381 .      A
C35   C36   1.370 .      A
C36   N12   1.353 .      A
C39   N14   1.367 .      A
C39   N15   1.385 .      A
N14   C40   1.347 .      A
C40   C41   1.374 .      A
C40   C45   1.366 .      A
C41   C42   1.383 .      A
C42   C43   1.390 .      A
C43   C44   1.385 .      A
C44   C45   1.376 .      A
C45   N15   1.356 .      A
C48   N17   1.375 .      A
C48   N18   1.381 .      A
N17   C49   1.342 .      A
C49   C50   1.368 .      A
C49   C54   1.359 .      A
C50   C51   1.380 .      A
C51   C52   1.379 .      A
C52   C53   1.377 .      A
C53   C54   1.363 .      A
C54   N18   1.353 .      A
C57   N20   1.371 .      A
C57   N21   1.390 .      A
N20   C58   1.336 .      A
C58   C59   1.366 .      A
C58   C63   1.357 .      A
C59   C60   1.382 .      A
C60   C61   1.386 .      A
C61   C62   1.386 .      A
C62   C63   1.347 .      A
C63   N21   1.348 .      A
C66   N23   1.383 .      A
C66   N24   1.384 .      A
N23   C67   1.345 .      A
C67   C68   1.371 .      A
C67   C72   1.373 .      A
C68   C69   1.385 .      A
C69   C70   1.392 .      A
C70   C71   1.386 .      A
C71   C72   1.374 .      A
C72   N24   1.354 .      A
C75   N26   1.388 .      A
C75   N27   1.379 .      A
N26   C76   1.349 1_545  A
C76   N26   1.349 1_565  A
C76   C77   1.363 .      A
C76   C81   1.341 1_565  A
C77   C78   1.374 .      A
C78   C79   1.375 .      A
C79   C80   1.377 .      A
C80   C81   1.372 1_565  A
C81   C76   1.341 1_545  A
C81   C80   1.372 1_545  A
C81   N27   1.337 .      A
C84   N29   1.385 .      A
C84   N30   1.382 .      A
N29   C85   1.345 .      A
C85   C86   1.374 .      A
C85   C90   1.365 .      A
C86   C87   1.376 .      A
C87   C88   1.378 .      A
C88   C89   1.380 .      A
C89   C90   1.380 .      A
C90   N30   1.361 .      A
C93   N32   1.390 .      A
C93   N33   1.400 .      A
N32   C94   1.350 .      A
C94   C95   1.374 1_545  A
C94   C99   1.353 .      A
C95   C94   1.374 1_565  A
C95   C96   1.380 .      A
C96   C97   1.383 .      A
C97   C98   1.378 .      A
C98   C99   1.360 1_565  A
C99   C98   1.360 1_545  A
C99   N33   1.334 .      A
C102  N35   1.389 .      A
C102  N36   1.390 .      A
N35   C103  1.344 .      A
C103  C104  1.372 .      A
C103  C108  1.341 .      A
C104  C105  1.361 .      A
C105  C106  1.363 .      A
C106  C107  1.378 .      A
C107  C108  1.371 .      A
C108  N36   1.343 .      A
C111  N38   1.382 .      A
C111  N39   1.377 .      A
N38   C112  1.341 .      A
C112  C113  1.369 .      A
C112  C117  1.360 .      A
C113  C114  1.379 .      A
C114  C115  1.382 .      A
C115  C116  1.385 .      A
C116  C117  1.373 .      A
C117  N39   1.354 .      A
C120  N41   1.389 .      A
C120  N42   1.378 .      A
N41   C121  1.347 .      A
C121  C122  1.369 .      A
C121  C126  1.349 .      A
C122  C123  1.375 .      A
C123  C124  1.373 .      A
C124  C125  1.376 .      A
C125  C126  1.372 .      A
C126  N42   1.348 .      A
C129  N44   1.379 .      A
C129  N45   1.389 .      A
N44   C130  1.342 .      A
C130  C131  1.372 .      A
C130  C135  1.365 .      A
C131  C132  1.383 .      A
C132  C133  1.389 .      A
C133  C134  1.385 .      A
C134  C135  1.365 .      A
C135  N45   1.349 .      A
C138  N47   1.388 .      A
C138  N48   1.377 .      A
N47   C139  1.357 .      A
C139  C140  1.376 .      A
C139  C144  1.373 .      A
C140  C141  1.385 .      A
C141  C142  1.390 .      A
C142  C143  1.383 .      A
C143  C144  1.371 .      A
C144  N48   1.346 .      A
C147  N50   1.388 .      A
C147  N51   1.390 .      A
N50   C148  1.348 .      A
C148  C149  1.375 .      A
C148  C153  1.362 .      A
C149  C150  1.382 .      A
C150  C151  1.385 .      A
C151  C152  1.382 .      A
C152  C153  1.372 .      A
C153  N51   1.350 .      A
C156  N53   1.383 .      A
C156  N54   1.385 .      A
N53   C157  1.345 .      A
C157  C158  1.376 .      A
C157  C162  1.364 .      A
C158  C159  1.381 .      A
C159  C160  1.385 1_556  A
C160  C159  1.385 1_554  A
C160  C161  1.382 1_554  A
C161  C160  1.382 1_556  A
C161  C162  1.379 .      A
C162  N54   1.362 .      A
C165  N56   1.376 .      A
C165  N57   1.363 .      A
N56   C166  1.357 .      A
C166  C167  1.373 .      A
C166  C171  1.365 .      A
C167  C168  1.385 .      A
C168  C169  1.390 .      A
C169  C170  1.383 .      A
C170  C171  1.371 .      A
C171  N57   1.338 .      A
C174  N59   1.383 .      A
C174  N60   1.389 .      A
N59   C175  1.342 .      A
C175  C176  1.371 .      A
C175  C180  1.366 .      A
C176  C177  1.365 .      A
C177  C178  1.363 .      A
C178  C179  1.369 .      A
C179  C180  1.374 .      A
C180  N60   1.356 .      A
C183  N62   1.391 .      A
C183  N63   1.402 .      A
N62   C184  1.355 .      A
C184  C185  1.369 .      A
C184  C189  1.376 .      A
C185  C186  1.383 .      A
C186  C187  1.387 .      A
C187  C188  1.382 .      A
C188  C189  1.371 .      A
C189  N63   1.345 .      A
C192  N65   1.385 .      A
C192  N66   1.391 .      A
N65   C193  1.358 .      A
C193  C194  1.363 .      A
C193  C198  1.344 .      A
C194  C195  1.380 .      A
C195  C196  1.380 .      A
C196  C197  1.374 .      A
C197  C198  1.366 .      A
C198  N66   1.329 .      A
C201  N68   1.389 .      A
C201  N69   1.394 .      A
N68   C202  1.344 1_554  A
C202  N68   1.344 1_556  A
C202  C203  1.373 .      A
C202  C207  1.362 1_556  A
C203  C204  1.382 .      A
C204  C205  1.387 .      A
C205  C206  1.383 1_556  A
C206  C205  1.383 1_554  A
C206  C207  1.366 .      A
C207  C202  1.362 1_554  A
C207  N69   1.348 .      A
C210  N71   1.394 .      A
C210  N72   1.380 .      A
N71   C211  1.353 .      A
C211  C212  1.358 .      A
C211  C216  1.356 .      A
C212  C213  1.386 .      A
C213  C214  1.380 .      A
C214  C215  1.377 .      A
C215  C216  1.377 .      A
C216  N72   1.338 .      A
C219  N74   1.386 .      A
C219  N75   1.376 .      A
N74   C220  1.359 .      A
C220  C221  1.375 .      A
C220  C225  1.367 .      A
C221  C222  1.384 .      A
C222  C223  1.388 .      A
C223  C224  1.382 .      A
C224  C225  1.365 .      A
C225  N75   1.341 .      A
C228  N77   1.395 .      A
C228  N78   1.374 .      A
N77   C229  1.357 .      A
C229  C230  1.370 .      A
C229  C234  1.364 .      A
C230  C231  1.383 .      A
C231  C232  1.385 .      A
C232  C233  1.381 .      A
C233  C234  1.374 .      A
C234  N78   1.341 .      A
C237  N80   1.384 .      A
C237  N81   1.378 .      A
N80   C238  1.354 .      A
C238  C239  1.374 .      A
C238  C243  1.364 .      A
C239  C240  1.383 .      A
C240  C241  1.385 .      A
C241  C242  1.380 .      A
C242  C243  1.371 .      A
C243  N81   1.339 .      A
C246  N83   1.365 .      A
C246  N84   1.377 .      A
N83   C247  1.350 .      A
C247  C248  1.374 .      A
C247  C252  1.363 .      A
C248  C249  1.383 .      A
C249  C250  1.388 .      A
C250  C251  1.382 .      A
C251  C252  1.374 .      A
C252  N84   1.346 .      A
C255  N86   1.379 .      A
C255  N87   1.369 .      A
N86   C256  1.346 .      A
C256  C257  1.378 .      A
C256  C261  1.367 .      A
C257  C258  1.372 .      A
C258  C259  1.372 .      A
C259  C260  1.378 .      A
C260  C261  1.387 .      A
C261  N87   1.370 .      A
C264  N89   1.389 .      A
C264  N90   1.389 .      A
N89   C265  1.380 .      A
C265  C266  1.373 .      A
C265  C270  1.363 .      A
C266  C267  1.384 .      A
C267  C268  1.377 .      A
C268  C269  1.372 .      A
C269  C270  1.372 .      A
C270  N90   1.322 .      A
C273  N92   1.391 .      A
C273  N93   1.393 .      A
N92   C274  1.353 .      A
C274  C275  1.372 .      A
C274  C279  1.357 .      A
C275  C276  1.372 .      A
C276  C277  1.375 .      A
C277  C278  1.372 .      A
C278  C279  1.372 .      A
C279  N93   1.344 .      A
C282  N95   1.388 .      A
C282  N96   1.388 .      A
N95   C283  1.351 .      A
C283  C284  1.363 .      A
C283  C288  1.359 .      A
C284  C285  1.380 .      A
C285  C286  1.384 .      A
C286  C287  1.383 .      A
C287  C288  1.369 .      A
C288  N96   1.341 .      A
C291  N98   1.381 .      A
C291  N99   1.378 .      A
N98   C292  1.349 .      A
C292  C293  1.369 .      A
C292  C297  1.352 .      A
C293  C294  1.383 .      A
C294  C295  1.385 .      A
C295  C296  1.379 .      A
C296  C297  1.368 .      A
C297  N99   1.339 .      A
C300  N101  1.365 .      A
C300  N102  1.362 .      A
N101  C301  1.347 .      A
C301  C302  1.372 .      A
C301  C306  1.372 .      A
C302  C303  1.385 .      A
C303  C304  1.393 .      A
C304  C305  1.386 .      A
C305  C306  1.373 .      A
C306  N102  1.352 .      A
C309  N104  1.388 .      A
C309  N105  1.379 .      A
N104  C310  1.344 .      A
C310  C311  1.370 .      A
C310  C315  1.364 .      A
C311  C312  1.382 .      A
C312  C313  1.388 .      A
C313  C314  1.384 .      A
C314  C315  1.373 .      A
C315  N105  1.350 .      A
C318  N107  1.391 .      A
C318  N108  1.385 .      A
N107  C319  1.339 .      A
C319  C320  1.363 .      A
C319  C324  1.359 .      A
C320  C321  1.376 .      A
C321  C322  1.382 .      A
C322  C323  1.382 .      A
C323  C324  1.370 .      A
C324  N108  1.353 .      A
C327  N110  1.379 .      A
C327  N111  1.386 .      A
N110  C328  1.351 .      A
C328  C329  1.373 1_556  A
C328  C333  1.349 .      A
C329  C328  1.373 1_554  A
C329  C330  1.379 .      A
C330  C331  1.381 1_554  A
C331  C330  1.381 1_556  A
C331  C332  1.379 .      A
C332  C333  1.370 .      A
C333  N111  1.345 .      A
C336  N113  1.386 .      A
C336  N114  1.375 .      A
N113  C337  1.349 .      A
C337  C338  1.369 .      A
C337  C342  1.372 1_554  A
C338  C339  1.382 1_554  A
C339  C338  1.382 1_556  A
C339  C340  1.387 .      A
C340  C341  1.383 .      A
C341  C342  1.373 .      A
C342  C337  1.372 1_556  A
C342  N114  1.352 1_556  A
N114  C342  1.352 1_554  A
C345  N116  1.380 .      A
C345  N117  1.383 .      A
N116  C346  1.354 .      A
C346  C347  1.376 .      A
C346  C351  1.368 .      A
C347  C348  1.383 .      A
C348  C349  1.387 .      A
C349  C350  1.381 .      A
C350  C351  1.372 .      A
C351  N117  1.344 .      A
C354  N119  1.383 .      A
C354  N120  1.385 1_554  A
N119  C355  1.351 1_554  A
C355  N119  1.351 1_556  A
C355  C356  1.381 .      A
C355  C360  1.355 .      A
C356  C357  1.362 .      A
C357  C358  1.362 .      A
C358  C359  1.365 .      A
C359  C360  1.366 .      A
C360  N120  1.347 .      A
N120  C354  1.385 1_556  A
C363  N122  1.391 .      A
C363  N123  1.384 .      A
N122  C364  1.352 .      A
C364  C365  1.363 .      A
C364  C369  1.358 .      A
C365  C366  1.381 .      A
C366  C367  1.372 .      A
C367  C368  1.376 .      A
C368  C369  1.370 .      A
C369  N123  1.338 .      A
C372  N125  1.394 .      A
C372  N126  1.373 .      A
N125  C373  1.354 .      A
C373  C374  1.372 .      A
C373  C378  1.363 .      A
C374  C375  1.381 .      A
C375  C376  1.383 .      A
C376  C377  1.380 .      A
C377  C378  1.376 .      A
C378  N126  1.344 .      A
C381  N128  1.385 .      A
C381  N129  1.393 .      A
N128  C382  1.347 .      A
C382  C383  1.379 .      A
C382  C387  1.352 .      A
C383  C384  1.381 .      A
C384  C385  1.382 .      A
C385  C386  1.381 .      A
C386  C387  1.362 .      A
C387  N129  1.352 .      A
C390  N131  1.362 .      A
C390  N132  1.392 .      A
N131  C391  1.332 .      A
C391  C392  1.371 .      A
C391  C396  1.369 .      A
C392  C393  1.377 .      A
C393  C394  1.383 .      A
C394  C395  1.384 .      A
C395  C396  1.381 .      A
C396  N132  1.371 .      A
C399  N134  1.390 .      A
C399  N135  1.386 .      A
N134  C400  1.348 .      A
C400  C401  1.376 .      A
C400  C405  1.358 .      A
C401  C402  1.384 .      A
C402  C403  1.386 .      A
C403  C404  1.377 .      A
C404  C405  1.360 .      A
C405  N135  1.343 .      A
C408  N137  1.377 .      A
C408  N138  1.379 .      A
N137  C409  1.347 .      A
C409  C410  1.372 .      A
C409  C414  1.356 1_554  A
C410  C411  1.376 1_554  A
C411  C410  1.376 1_556  A
C411  C412  1.376 .      A
C412  C413  1.378 .      A
C413  C414  1.362 .      A
C414  C409  1.356 1_556  A
C414  N138  1.349 1_556  A
N138  C414  1.349 1_554  A
C417  N140  1.385 .      A
C417  N141  1.374 .      A
N140  C418  1.351 .      A
C418  C419  1.372 .      A
C418  C423  1.373 .      A
C419  C420  1.384 .      A
C420  C421  1.390 .      A
C421  C422  1.383 .      A
C422  C423  1.368 .      A
C423  N141  1.347 .      A
C426  N143  1.388 .      A
C426  N144  1.387 .      A
N143  C427  1.355 .      A
C427  C428  1.378 .      A
C427  C432  1.350 .      A
C428  C429  1.367 .      A
C429  C430  1.363 .      A
C430  C431  1.370 .      A
C431  C432  1.383 .      A
C432  N144  1.355 .      A
C435  N146  1.371 .      A
C435  N147  1.379 .      A
N146  C436  1.339 .      A
C436  C437  1.369 .      A
C436  C441  1.356 .      A
C437  C438  1.376 .      A
C438  C439  1.388 .      A
C439  C440  1.379 .      A
C440  C441  1.367 .      A
C441  N147  1.350 .      A
C444  N149  1.391 .      A
C444  N150  1.385 .      A
N149  C445  1.360 .      A
C445  C446  1.374 .      A
C445  C450  1.360 .      A
C446  C447  1.382 .      A
C447  C448  1.385 .      A
C448  C449  1.378 .      A
C449  C450  1.368 .      A
C450  N150  1.336 .      A
C453  N152  1.381 .      A
C453  N153  1.390 .      A
N152  C454  1.347 .      A
C454  C455  1.373 .      A
C454  C459  1.364 .      A
C455  C456  1.382 .      A
C456  C457  1.388 1_655  A
C457  C456  1.388 1_455  A
C457  C458  1.384 .      A
C458  C459  1.374 1_455  A
C459  C458  1.374 1_655  A
C459  N153  1.351 .      A
C462  N155  1.372 1_554  A
C462  N156  1.389 1_554  A
N155  C462  1.372 1_556  A
N155  C463  1.339 1_455  A
C463  N155  1.339 1_655  A
C463  C464  1.377 .      A
C463  C468  1.358 .      A
C464  C465  1.376 .      A
C465  C466  1.383 .      A
C466  C467  1.385 .      A
C467  C468  1.372 .      A
C468  N156  1.356 1_655  A
N156  C462  1.389 1_556  A
N156  C468  1.356 1_455  A
C471  N158  1.370 1_655  A
C471  N159  1.376 .      A
N158  C471  1.370 1_455  A
N158  C472  1.343 .      A
C472  C473  1.371 .      A
C472  C477  1.357 1_455  A
C473  C474  1.383 .      A
C474  C475  1.387 .      A
C475  C476  1.383 1_455  A
C476  C475  1.383 1_655  A
C476  C477  1.353 .      A
C477  C472  1.357 1_655  A
C477  N159  1.347 .      A
C480  N161  1.387 .      A
C480  N162  1.380 .      A
N161  C481  1.351 .      A
C481  C482  1.372 .      A
C481  C486  1.372 .      A
C482  C483  1.386 .      A
C483  C484  1.392 .      A
C484  C485  1.384 .      A
C485  C486  1.370 .      A
C486  N162  1.343 .      A
C489  N164  1.380 .      A
C489  N165  1.388 .      A
N164  C490  1.347 .      A
C490  C491  1.376 .      A
C490  C495  1.360 .      A
C491  C492  1.381 .      A
C492  C493  1.385 .      A
C493  C494  1.386 .      A
C494  C495  1.373 .      A
C495  N165  1.347 .      A
C498  N167  1.377 .      A
C498  N168  1.381 .      A
N167  C499  1.344 .      A
C499  C500  1.373 .      A
C499  C504  1.367 .      A
C500  C501  1.382 .      A
C501  C502  1.388 .      A
C502  C503  1.385 .      A
C503  C504  1.359 .      A
C504  N168  1.350 .      A
C507  N170  1.394 .      A
C507  N171  1.377 .      A
N170  C508  1.339 .      A
C508  C509  1.367 .      A
C508  C513  1.352 .      A
C509  C510  1.384 .      A
C510  C511  1.387 .      A
C511  C512  1.381 .      A
C512  C513  1.357 .      A
C513  N171  1.346 .      A
C516  N173  1.382 .      A
C516  N174  1.386 .      A
N173  C517  1.349 .      A
C517  C518  1.370 .      A
C517  C522  1.369 .      A
C518  C519  1.386 .      A
C519  C520  1.393 .      A
C520  C521  1.385 .      A
C521  C522  1.371 .      A
C522  N174  1.345 .      A
C525  N176  1.388 .      A
C525  N177  1.391 .      A
N176  C526  1.345 .      A
C526  C527  1.371 .      A
C526  C531  1.353 .      A
C527  C528  1.376 .      A
C528  C529  1.382 .      A
C529  C530  1.375 .      A
C530  C531  1.356 .      A
C531  N177  1.344 .      A
C534  N179  1.375 .      A
C534  N180  1.380 1_655  A
N179  C535  1.344 1_655  A
C535  N179  1.344 1_455  A
C535  C536  1.371 .      A
C535  C540  1.368 .      A
C536  C537  1.384 .      A
C537  C538  1.392 .      A
C538  C539  1.387 .      A
C539  C540  1.363 .      A
C540  N180  1.346 .      A
N180  C534  1.380 1_455  A
C543  N182  1.389 .      A
C543  N183  1.388 .      A
N182  C544  1.355 .      A
C544  C545  1.374 1_545  A
C544  C549  1.359 .      A
C545  C544  1.374 1_565  A
C545  C546  1.380 .      A
C546  C547  1.376 .      A
C547  C548  1.374 .      A
C548  C549  1.370 1_565  A
C549  C548  1.370 1_545  A
C549  N183  1.344 .      A
C552  N185  1.379 .      A
C552  N186  1.397 .      A
N185  C553  1.353 .      A
C553  C554  1.373 .      A
C553  C558  1.365 .      A
C554  C555  1.379 .      A
C555  C556  1.381 .      A
C556  C557  1.381 .      A
C557  C558  1.372 .      A
C558  N186  1.348 .      A
C561  N188  1.381 .      A
C561  N189  1.377 .      A
N188  C562  1.345 .      A
C562  C563  1.373 .      A
C562  C567  1.367 .      A
C563  C564  1.383 .      A
C564  C565  1.390 .      A
C565  C566  1.385 .      A
C566  C567  1.377 .      A
C567  N189  1.357 .      A
C570  N191  1.407 .      A
C570  N192  1.393 .      A
N191  C571  1.347 .      A
C571  C572  1.369 .      A
C571  C576  1.367 .      A
C572  C573  1.383 .      A
C573  C574  1.390 .      A
C574  C575  1.384 .      A
C575  C576  1.367 .      A
C576  N192  1.346 .      A
C579  N194  1.393 .      A
C579  N195  1.390 .      A
N194  C580  1.364 .      A
C580  C581  1.371 .      A
C580  C585  1.350 .      A
C581  C582  1.386 .      A
C582  C583  1.382 .      A
C583  C584  1.376 .      A
C584  C585  1.373 .      A
C585  N195  1.329 .      A
C588  N197  1.367 .      A
C588  N198  1.401 .      A
N197  C589  1.345 .      A
C589  C590  1.372 .      A
C589  C594  1.374 .      A
C590  C591  1.381 .      A
C591  C592  1.387 .      A
C592  C593  1.383 .      A
C593  C594  1.375 .      A
C594  N198  1.359 .      A
C597  N200  1.377 .      A
C597  N201  1.379 .      A
N200  C598  1.348 .      A
C598  C599  1.372 .      A
C598  C603  1.365 .      A
C599  C600  1.384 .      A
C600  C601  1.390 .      A
C601  C602  1.384 .      A
C602  C603  1.376 .      A
C603  N201  1.351 .      A
C606  N203  1.395 .      A
C606  N204  1.362 .      A
N203  C607  1.344 .      A
C607  C608  1.365 .      A
C607  C612  1.339 .      A
C608  C609  1.378 .      A
C609  C610  1.381 .      A
C610  C611  1.377 .      A
C611  C612  1.358 .      A
C612  N204  1.337 .      A
C615  N206  1.385 .      A
C615  N207  1.386 .      A
N206  C616  1.342 .      A
C616  C617  1.363 .      A
C616  C621  1.341 .      A
C617  C618  1.364 .      A
C618  C619  1.352 .      A
C619  C620  1.370 .      A
C620  C621  1.340 .      A
C621  N207  1.332 .      A
C624  N209  1.378 .      A
C624  N210  1.367 .      A
N209  C625  1.360 .      A
C625  C626  1.368 .      A
C625  C630  1.350 .      A
C626  C627  1.379 .      A
C627  C628  1.369 .      A
C628  C629  1.368 .      A
C629  C630  1.364 .      A
C630  N210  1.335 .      A
C633  N212  1.384 .      A
C633  N213  1.386 .      A
N212  C634  1.366 .      A
C634  C635  1.384 .      A
C634  C639  1.373 .      A
C635  C636  1.385 .      A
C636  C637  1.386 .      A
C637  C638  1.379 .      A
C638  C639  1.366 .      A
C639  N213  1.339 .      A
C642  N215  1.376 .      A
C642  N216  1.387 .      A
N215  C643  1.349 .      A
C643  C644  1.368 .      A
C643  C648  1.350 .      A
C644  C645  1.379 .      A
C645  C646  1.383 .      A
C646  C647  1.380 .      A
C647  C648  1.365 .      A
C648  N216  1.342 .      A
C651  N218  1.387 .      A
C651  N219  1.392 .      A
N218  C652  1.356 .      A
C652  C653  1.382 .      A
C652  C657  1.352 .      A
C653  C654  1.378 .      A
C654  C655  1.373 .      A
C655  C656  1.373 .      A
C656  C657  1.363 .      A
C657  N219  1.342 .      A
C660  N221  1.374 .      A
C660  N222  1.374 .      A
N221  C661  1.350 .      A
C661  C662  1.374 .      A
C661  C666  1.369 .      A
C662  C663  1.383 .      A
C663  C664  1.390 .      A
C664  C665  1.385 .      A
C665  C666  1.369 .      A
C666  N222  1.347 .      A
C669  N224  1.386 .      A
C669  N225  1.382 .      A
N224  C670  1.345 .      A
C670  C671  1.366 .      A
C670  C675  1.360 .      A
C671  C672  1.383 .      A
C672  C673  1.386 .      A
C673  C674  1.382 .      A
C674  C675  1.365 .      A
C675  N225  1.343 .      A
C678  N227  1.380 .      A
C678  N228  1.389 .      A
N227  C679  1.337 .      A
C679  C680  1.371 .      A
C679  C684  1.359 .      A
C680  C681  1.380 .      A
C681  C682  1.378 .      A
C682  C683  1.378 .      A
C683  C684  1.371 .      A
C684  N228  1.358 .      A
C687  N230  1.375 .      A
C687  N231  1.369 .      A
N230  C688  1.352 .      A
C688  C689  1.376 .      A
C688  C693  1.362 .      A
C689  C690  1.386 .      A
C690  C691  1.391 .      A
C691  C692  1.384 .      A
C692  C693  1.374 .      A
C693  N231  1.345 .      A
C696  N233  1.388 .      A
C696  N234  1.385 .      A
N233  C697  1.354 .      A
C697  C698  1.356 .      A
C697  C702  1.357 .      A
C698  C699  1.374 .      A
C699  C700  1.371 .      A
C700  C701  1.371 .      A
C701  C702  1.376 .      A
C702  N234  1.341 .      A
C705  N236  1.379 .      A
C705  N237  1.389 .      A
N236  C706  1.348 .      A
C706  C707  1.367 .      A
C706  C711  1.361 .      A
C707  C708  1.381 .      A
C708  C709  1.382 1_655  A
C709  C708  1.382 1_455  A
C709  C710  1.381 .      A
C710  C711  1.376 1_455  A
C711  C710  1.376 1_655  A
C711  N237  1.351 .      A
C714  N239  1.384 1_655  A
C714  N240  1.374 .      A
N239  C714  1.384 1_455  A
N239  C715  1.347 .      A
C715  C716  1.373 .      A
C715  C720  1.372 .      A
C716  C717  1.382 .      A
C717  C718  1.386 .      A
C718  C719  1.382 .      A
C719  C720  1.376 .      A
C720  N240  1.357 1_455  A
N240  C720  1.357 1_655  A
C723  N242  1.388 .      A
C723  N243  1.389 .      A
N242  C724  1.342 .      A
C724  C725  1.358 .      A
C724  C729  1.346 .      A
C725  C726  1.376 .      A
C726  C727  1.370 .      A
C727  C728  1.375 .      A
C728  C729  1.361 .      A
C729  N243  1.345 .      A
C732  N245  1.377 .      A
C732  N246  1.404 .      A
N245  C733  1.344 .      A
C733  C734  1.373 1_655  A
C733  C738  1.360 .      A
C734  C733  1.373 1_455  A
C734  C735  1.381 .      A
C735  C736  1.387 .      A
C736  C737  1.384 .      A
C737  C738  1.371 1_455  A
C738  C737  1.371 1_655  A
C738  N246  1.350 .      A
C741  N248  1.377 .      A
C741  N249  1.393 .      A
N248  C742  1.333 .      A
C742  C743  1.369 .      A
C742  C747  1.340 .      A
C743  C744  1.377 .      A
C744  C745  1.377 .      A
C745  C746  1.380 .      A
C746  C747  1.371 .      A
C747  N249  1.356 .      A
C750  N251  1.397 .      A
C750  N252  1.387 .      A
N251  C751  1.354 .      A
C751  C752  1.367 .      A
C751  C756  1.353 .      A
C752  C753  1.372 .      A
C753  C754  1.374 .      A
C754  C755  1.366 .      A
C755  C756  1.347 .      A
C756  N252  1.330 .      A
C759  N254  1.398 .      A
C759  N255  1.387 .      A
N254  C760  1.347 .      A
C760  C761  1.368 .      A
C760  C765  1.375 .      A
C761  C762  1.385 .      A
C762  C763  1.391 .      A
C763  C764  1.385 .      A
C764  C765  1.370 .      A
C765  N255  1.346 .      A
C768  N257  1.377 .      A
C768  N258  1.397 .      A
N257  C769  1.346 .      A
C769  C770  1.373 .      A
C769  C774  1.357 .      A
C770  C771  1.384 .      A
C771  C772  1.390 .      A
C772  C773  1.384 .      A
C773  C774  1.374 .      A
C774  N258  1.347 .      A
C777  N260  1.379 .      A
C777  N261  1.379 .      A
N260  C778  1.344 .      A
C778  C779  1.368 1_455  A
C778  C783  1.358 .      A
C779  C778  1.368 1_655  A
C779  C780  1.386 .      A
C780  C781  1.390 .      A
C781  C782  1.381 .      A
C782  C783  1.369 1_655  A
C783  C782  1.369 1_455  A
C783  N261  1.343 .      A
C786  N263  1.383 1_655  A
C786  N264  1.379 .      A
N263  C786  1.383 1_455  A
N263  C787  1.335 .      A
C787  C788  1.361 .      A
C787  C792  1.366 .      A
C788  C789  1.380 .      A
C789  C790  1.386 .      A
C790  C791  1.384 .      A
C791  C792  1.371 .      A
C792  N264  1.353 1_455  A
N264  C792  1.353 1_655  A
C795  N266  1.382 .      A
C795  N267  1.389 .      A
N266  C796  1.344 1_655  A
C796  N266  1.344 1_455  A
C796  C797  1.381 .      A
C796  C801  1.364 .      A
C797  C798  1.379 .      A
C798  C799  1.381 .      A
C799  C800  1.381 .      A
C800  C801  1.367 .      A
C801  N267  1.360 1_455  A
N267  C801  1.360 1_655  A
C804  N269  1.374 .      A
C804  N270  1.371 1_655  A
N269  C805  1.348 1_655  A
C805  N269  1.348 1_455  A
C805  C806  1.370 .      A
C805  C810  1.365 .      A
C806  C807  1.385 .      A
C807  C808  1.393 .      A
C808  C809  1.386 .      A
C809  C810  1.371 .      A
C810  N270  1.347 .      A
N270  C804  1.371 1_455  A
C813  N272  1.387 .      A
C813  N273  1.371 .      A
N272  C814  1.339 .      A
C814  C815  1.369 1_655  A
C814  C819  1.366 1_655  A
C815  C814  1.369 1_455  A
C815  C816  1.377 .      A
C816  C817  1.382 .      A
C817  C818  1.382 .      A
C818  C819  1.378 .      A
C819  C814  1.366 1_455  A
C819  N273  1.353 1_455  A
N273  C819  1.353 1_655  A
C822  N275  1.382 .      A
C822  N276  1.382 .      A
N275  C823  1.338 .      A
C823  C824  1.371 .      A
C823  C828  1.359 .      A
C824  C825  1.377 1_655  A
C825  C824  1.377 1_455  A
C825  C826  1.380 1_455  A
C826  C825  1.380 1_655  A
C826  C827  1.382 .      A
C827  C828  1.367 .      A
C828  N276  1.357 .      A
C831  N278  1.375 .      A
C831  N279  1.371 .      A
N278  C832  1.348 .      A
C832  C833  1.375 .      A
C832  C837  1.364 .      A
C833  C834  1.382 .      A
C834  C835  1.387 .      A
C835  C836  1.384 .      A
C836  C837  1.373 .      A
C837  N279  1.351 .      A
C840  N281  1.366 .      A
C840  N282  1.384 .      A
N281  C841  1.347 .      A
C841  C842  1.371 .      A
C841  C846  1.355 .      A
C842  C843  1.379 .      A
C843  C844  1.383 .      A
C844  C845  1.383 .      A
C845  C846  1.369 .      A
C846  N282  1.345 .      A
C849  N284  1.383 .      A
C849  N285  1.382 .      A
N284  C850  1.342 .      A
C850  C851  1.373 1_655  A
C850  C855  1.367 .      A
C851  C850  1.373 1_455  A
C851  C852  1.380 .      A
C852  C853  1.385 .      A
C853  C854  1.383 .      A
C854  C855  1.372 1_455  A
C855  C854  1.372 1_655  A
C855  N285  1.356 .      A
C858  N287  1.371 1_655  A
C858  N288  1.371 .      A
N287  C858  1.371 1_455  A
N287  C859  1.341 .      A
C859  C860  1.368 .      A
C859  C864  1.377 .      A
C860  C861  1.380 .      A
C861  C862  1.388 .      A
C862  C863  1.387 .      A
C863  C864  1.379 .      A
C864  N288  1.365 1_455  A
N288  C864  1.365 1_655  A
