data_str_m1_o12271_PSI
_audit_creation_date              2015-10-01T06:28:51-0700
_symmetry_space_group_name_H-M    P1
_symmetry_Int_Tables_number       1
_space_group_crystal_system       triclinic
loop_
_symmetry_equiv_pos_as_xyz
  x,y,z
_cell_length_a                    26.4068175
_cell_length_b                    18.5591351
_cell_length_c                    84.3827789
_cell_angle_alpha                 89.8114572
_cell_angle_beta                  86.8043435
_cell_angle_gamma                 110.356671
_cell_volume                      38700.4931999

loop_
_atom_site_label
_atom_site_type_symbol
_atom_site_description
_atom_site_fract_x
_atom_site_fract_y
_atom_site_fract_z
_atom_type_partial_charge
Zn1   Zn    Zn3+2 0.573119 0.315247 0.708764 0.000000
Zn2   Zn    Zn3+2 0.814569 0.918234 0.704306 0.000000
Zn3   Zn    Zn3+2 0.562771 0.946888 0.706136 0.000000
Zn4   Zn    Zn3+2 0.475024 0.770380 0.204624 0.000000
Zn5   Zn    Zn3+2 0.790272 0.445120 0.916433 0.000000
Zn6   Zn    Zn3+2 0.272731 0.262797 0.416347 0.000000
Zn7   Zn    Zn3+2 0.786699 0.059119 0.913976 0.000000
Zn8   Zn    Zn3+2 0.268137 0.634508 0.416962 0.000000
Zn9   Zn    Zn3+2 0.263465 0.798070 0.068772 0.000000
Zn10  Zn    Zn3+2 0.488283 0.879127 0.280281 0.000000
Zn11  Zn    Zn3+2 0.532539 0.294145 0.578213 0.000000
Zn12  Zn    Zn3+2 0.534792 0.438137 0.909225 0.000000
Zn13  Zn    Zn3+2 0.527387 0.254764 0.405775 0.000000
Zn14  Zn    Zn3+2 0.531859 0.797318 0.904260 0.000000
Zn15  Zn    Zn3+2 0.940677 0.498720 0.631455 0.000000
Zn16  Zn    Zn3+2 0.944446 0.635791 0.847294 0.000000
Zn17  Zn    Zn3+2 0.223945 0.772129 0.205925 0.000000
Zn18  Zn    Zn3+2 0.891923 0.467889 0.494312 0.000000
Zn19  Zn    Zn3+2 0.894177 0.609245 0.987664 0.000000
Zn20  Zn    Zn3+2 0.165448 0.101873 0.489342 0.000000
Zn21  Zn    Zn3+2 0.895546 0.986973 0.985435 0.000000
Zn22  Zn    Zn3+2 0.434579 0.252655 0.844233 0.000000
Zn23  Zn    Zn3+2 0.641544 0.445270 0.336052 0.000000
Zn24  Zn    Zn3+2 0.628207 0.353030 0.145650 0.000000
Zn25  Zn    Zn3+2 0.421819 0.361915 0.649926 0.000000
Zn26  Zn    Zn3+2 0.589993 0.443621 0.780262 0.000000
Zn27  Zn    Zn3+2 0.496199 0.260693 0.279580 0.000000
Zn28  Zn    Zn3+2 0.826225 0.055038 0.779584 0.000000
Zn29  Zn    Zn3+2 0.569845 0.810316 0.778552 0.000000
Zn30  Zn    Zn3+2 0.160469 0.731415 0.487348 0.000000
Zn31  Zn    Zn3+2 0.231629 0.636409 0.284397 0.000000
Zn32  Zn    Zn3+2 0.232122 0.155677 0.207668 0.000000
Zn33  Zn    Zn3+2 0.426354 0.883212 0.839331 0.000000
Zn34  Zn    Zn3+2 0.524398 0.427326 0.079828 0.000000
Zn35  Zn    Zn3+2 0.113099 0.227074 0.141244 0.000000
Zn36  Zn    Zn3+2 0.263844 0.175403 0.071874 0.000000
Zn37  Zn    Zn3+2 0.240491 0.271232 0.285567 0.000000
Zn38  Zn    Zn3+2 0.484480 0.406138 0.208372 0.000000
Zn39  Zn    Zn3+2 0.161534 0.239383 0.000321 0.000000
Zn40  Zn    Zn3+2 0.863794 0.969609 0.120928 0.000000
Zn41  Zn    Zn3+2 0.765242 0.043638 0.052495 0.000000
Zn42  Zn    Zn3+2 0.627248 0.981837 0.145279 0.000000
Zn43  Zn    Zn3+2 0.117212 0.703450 0.354197 0.000000
Zn44  Zn    Zn3+2 0.830613 0.560434 0.704352 0.000000
Zn45  Zn    Zn3+2 0.843316 0.431499 0.779229 0.000000
Zn46  Zn    Zn3+2 0.540040 0.925302 0.576738 0.000000
Zn47  Zn    Zn3+2 0.519212 0.796303 0.077865 0.000000
Zn48  Zn    Zn3+2 0.527264 0.883789 0.404669 0.000000
Zn49  Zn    Zn3+2 0.791030 0.541416 0.566312 0.000000
Zn50  Zn    Zn3+2 0.155940 0.607073 0.000015 0.000000
Zn51  Zn    Zn3+2 0.939665 0.113888 0.633783 0.000000
Zn52  Zn    Zn3+2 0.295197 0.815251 0.934793 0.000000
Zn53  Zn    Zn3+2 0.311835 0.699325 0.547673 0.000000
Zn54  Zn    Zn3+2 0.301377 0.188165 0.937269 0.000000
Zn55  Zn    Zn3+2 0.770688 0.894646 0.431594 0.000000
Zn56  Zn    Zn3+2 0.772215 0.421838 0.054264 0.000000
Zn57  Zn    Zn3+2 0.754794 0.516213 0.432493 0.000000
Zn58  Zn    Zn3+2 0.422377 0.736448 0.646387 0.000000
Zn59  Zn    Zn3+2 0.308858 0.328561 0.550429 0.000000
Zn60  Zn    Zn3+2 0.869713 0.072643 0.362917 0.000000
Zn61  Zn    Zn3+2 0.125535 0.073426 0.355336 0.000000
Zn62  Zn    Zn3+2 0.114511 0.593898 0.137731 0.000000
Zn63  Zn    Zn3+2 0.897332 0.093813 0.495160 0.000000
Zn64  Zn    Zn3+2 0.199005 0.125045 0.619348 0.000000
Zn65  Zn    Zn3+2 0.867444 0.601213 0.121598 0.000000
Zn66  Zn    Zn3+2 0.862953 0.441233 0.362571 0.000000
Zn67  Zn    Zn3+2 0.198815 0.267699 0.870031 0.000000
Zn68  Zn    Zn3+2 0.639644 0.812698 0.336745 0.000000
Zn69  Zn    Zn3+2 0.947128 0.010825 0.846885 0.000000
Zn70  Zn    Zn3+2 0.189988 0.638147 0.869059 0.000000
Zn71  Zn    Zn3+2 0.197043 0.757527 0.617401 0.000000
Zn72  Zn    Zn3+2 0.796737 0.923195 0.567962 0.000000
Br1   Br    Br    0.681078 0.548426 0.756543 0.000000
C1    C     C_R   0.631057 0.543082 0.741854 0.000000
C2    C     C_R   0.631821 0.612256 0.736202 0.000000
C3    C     C_R   0.608354 0.616853 0.722562 0.000000
C4    C     C_R   0.583046 0.551843 0.714533 0.000000
C5    C     C_R   0.578545 0.482034 0.720927 0.000000
C6    C     C_R   0.601361 0.475949 0.734937 0.000000
C7    C     C_R   0.586280 0.398420 0.742198 0.000000
N1    N     N_R   0.563422 0.337102 0.732551 0.000000
C8    C     C_R   0.532981 0.282528 0.742680 0.000000
C9    C     C_R   0.489165 0.222556 0.738624 0.000000
C10   C     C_R   0.452961 0.180757 0.750398 0.000000
C11   C     C_R   0.464831 0.195810 0.765927 0.000000
C12   C     C_R   0.509790 0.256224 0.769720 0.000000
C13   C     C_R   0.540255 0.305440 0.757868 0.000000
N2    N     N_R   0.573372 0.380482 0.758449 0.000000
H1    H     H_    0.653560 0.663791 0.742076 0.000000
H2    H     H_    0.614512 0.672264 0.717632 0.000000
H3    H     H_    0.565974 0.555355 0.703340 0.000000
H4    H     H_    0.557568 0.432582 0.714486 0.000000
H5    H     H_    0.478949 0.218385 0.726588 0.000000
H6    H     H_    0.414905 0.138219 0.747565 0.000000
H7    H     H_    0.436033 0.165836 0.775256 0.000000
H8    H     H_    0.515522 0.266061 0.781841 0.000000
Br2   Br    Br    0.454139 0.005809 0.741856 0.000000
C14   C     C_R   0.436830 0.037881 0.722524 0.000000
C15   C     C_R   0.381730 0.018654 0.721452 0.000000
C16   C     C_R   0.361460 0.060073 0.711826 0.000000
C17   C     C_R   0.396882 0.121729 0.703419 0.000000
C18   C     C_R   0.451830 0.136052 0.703303 0.000000
C19   C     C_R   0.473580 0.093577 0.712343 0.000000
C20   C     C_R   0.534224 0.117272 0.710923 0.000000
N3    N     N_R   0.560873 0.066308 0.705860 0.000000
C21   C     C_R   0.605587 0.116064 0.698443 0.000000
C22   C     C_R   0.633675 0.096051 0.686665 0.000000
C23   C     C_R   0.667411 0.152643 0.676330 0.000000
C24   C     C_R   0.673440 0.227600 0.678503 0.000000
C25   C     C_R   0.640269 0.245708 0.689402 0.000000
C26   C     C_R   0.608158 0.189887 0.699577 0.000000
N4    N     N_R   0.565896 0.195496 0.707931 0.000000
H9    H     H_    0.354255 0.975628 0.729545 0.000000
H10   H     H_    0.318330 0.047646 0.711749 0.000000
H11   H     H_    0.381579 0.158302 0.696622 0.000000
H12   H     H_    0.478797 0.184181 0.696505 0.000000
H13   H     H_    0.621731 0.036030 0.684605 0.000000
H14   H     H_    0.686473 0.140095 0.665634 0.000000
H15   H     H_    0.697490 0.270259 0.669991 0.000000
H16   H     H_    0.634105 0.298869 0.688058 0.000000
Br3   Br    Br    0.738306 0.814332 0.724794 0.000000
C27   C     C_R   0.771113 0.821177 0.743499 0.000000
C28   C     C_R   0.756197 0.751543 0.750873 0.000000
C29   C     C_R   0.750038 0.746623 0.766870 0.000000
C30   C     C_R   0.772531 0.810970 0.775521 0.000000
C31   C     C_R   0.797240 0.880008 0.767799 0.000000
C32   C     C_R   0.791860 0.887922 0.751749 0.000000
C33   C     C_R   0.816000 0.965416 0.744385 0.000000
N5    N     N_R   0.835581 0.977519 0.728213 0.000000
C34   C     C_R   0.881772 0.038708 0.729811 0.000000
C35   C     C_R   0.922353 0.072392 0.718474 0.000000
C36   C     C_R   0.973088 0.114634 0.723299 0.000000
C37   C     C_R   0.981790 0.124153 0.739316 0.000000
C38   C     C_R   0.938461 0.101283 0.750464 0.000000
C39   C     C_R   0.888221 0.060602 0.745338 0.000000
N6    N     N_R   0.843755 0.023535 0.754625 0.000000
H17   H     H_    0.741030 0.700997 0.743919 0.000000
H18   H     H_    0.728542 0.691737 0.772130 0.000000
H19   H     H_    0.772505 0.808279 0.788272 0.000000
H20   H     H_    0.816979 0.927410 0.775069 0.000000
H21   H     H_    0.914742 0.067630 0.706197 0.000000
H22   H     H_    0.006341 0.138962 0.714559 0.000000
H23   H     H_    0.022091 0.154547 0.743018 0.000000
H24   H     H_    0.944520 0.112494 0.762902 0.000000
Br4   Br    Br    0.699543 0.006082 0.670065 0.000000
C40   C     C_R   0.741611 0.070189 0.685343 0.000000
C41   C     C_R   0.781937 0.136997 0.681367 0.000000
C42   C     C_R   0.825022 0.163566 0.690666 0.000000
C43   C     C_R   0.823796 0.128378 0.704847 0.000000
C44   C     C_R   0.778719 0.068010 0.709679 0.000000
C45   C     C_R   0.736445 0.040838 0.700075 0.000000
C46   C     C_R   0.701533 0.962983 0.701718 0.000000
N7    N     N_R   0.643893 0.935292 0.701442 0.000000
C47   C     C_R   0.635672 0.862038 0.698242 0.000000
C48   C     C_R   0.587035 0.803721 0.698201 0.000000
C49   C     C_R   0.586370 0.733200 0.693307 0.000000
C50   C     C_R   0.634420 0.723521 0.688729 0.000000
C51   C     C_R   0.682939 0.782164 0.690743 0.000000
C52   C     C_R   0.682850 0.848483 0.696405 0.000000
N8    N     N_R   0.726583 0.909110 0.699881 0.000000
H25   H     H_    0.780267 0.165306 0.670609 0.000000
H26   H     H_    0.858401 0.213996 0.687376 0.000000
H27   H     H_    0.857326 0.150222 0.712230 0.000000
H28   H     H_    0.777364 0.039350 0.720666 0.000000
H29   H     H_    0.550902 0.810451 0.703002 0.000000
H30   H     H_    0.548594 0.685979 0.692748 0.000000
H31   H     H_    0.633036 0.668692 0.684218 0.000000
H32   H     H_    0.721673 0.782204 0.687652 0.000000
Br5   Br    Br    0.830951 0.116259 0.647757 0.000000
C53   C     C_R   0.797068 0.011526 0.648183 0.000000
C54   C     C_R   0.753812 0.976539 0.639220 0.000000
C55   C     C_R   0.720658 0.902468 0.643276 0.000000
C56   C     C_R   0.731631 0.864487 0.655923 0.000000
C57   C     C_R   0.776853 0.899635 0.664284 0.000000
C58   C     C_R   0.809515 0.973777 0.660279 0.000000
C59   C     C_R   0.860166 0.009369 0.667752 0.000000
N9    N     N_R   0.909304 0.044997 0.658374 0.000000
C60   C     C_R   0.943496 0.025906 0.667834 0.000000
C61   C     C_R   0.995114 0.026347 0.664372 0.000000
C62   C     C_R   0.023249 0.007053 0.676031 0.000000
C63   C     C_R   0.997361 0.975124 0.690261 0.000000
C64   C     C_R   0.943324 0.963086 0.692692 0.000000
C65   C     C_R   0.917913 0.990753 0.681847 0.000000
N10   N     N_R   0.865293 0.981191 0.682851 0.000000
H33   H     H_    0.744201 0.009009 0.629970 0.000000
H34   H     H_    0.686588 0.873416 0.636583 0.000000
H35   H     H_    0.705893 0.806244 0.658721 0.000000
H36   H     H_    0.788062 0.867932 0.673314 0.000000
H37   H     H_    0.013511 0.037272 0.652819 0.000000
H38   H     H_    0.065364 0.014728 0.673918 0.000000
H39   H     H_    0.018780 0.957277 0.699153 0.000000
H40   H     H_    0.921497 0.936626 0.703250 0.000000
Br6   Br    Br    0.890167 0.234473 0.935373 0.000000
C66   C     C_R   0.904369 0.286771 0.915679 0.000000
C67   C     C_R   0.957029 0.322290 0.910492 0.000000
C68   C     C_R   0.969207 0.342498 0.894703 0.000000
C69   C     C_R   0.928895 0.339227 0.884981 0.000000
C70   C     C_R   0.876944 0.320168 0.891397 0.000000
C71   C     C_R   0.864048 0.288361 0.906296 0.000000
C72   C     C_R   0.808076 0.261366 0.912034 0.000000
N11   N     N_R   0.778078 0.181712 0.914886 0.000000
C73   C     C_R   0.730628 0.187904 0.920485 0.000000
C74   C     C_R   0.686849 0.130072 0.927457 0.000000
C75   C     C_R   0.650980 0.150311 0.937328 0.000000
C76   C     C_R   0.658935 0.226671 0.939783 0.000000
C77   C     C_R   0.697658 0.283435 0.930956 0.000000
C78   C     C_R   0.733275 0.263815 0.921287 0.000000
N12   N     N_R   0.781055 0.314258 0.915593 0.000000
H41   H     H_    0.988133 0.325815 0.918476 0.000000
H42   H     H_    0.010171 0.365250 0.889884 0.000000
H43   H     H_    0.939586 0.358908 0.872822 0.000000
H44   H     H_    0.845433 0.327216 0.884728 0.000000
H45   H     H_    0.684497 0.071661 0.927528 0.000000
H46   H     H_    0.619646 0.107066 0.944327 0.000000
H47   H     H_    0.637704 0.242825 0.949575 0.000000
H48   H     H_    0.706493 0.341862 0.934030 0.000000
Br7   Br    Br    0.667020 0.620727 0.914595 0.000000
C79   C     C_R   0.675989 0.575349 0.894708 0.000000
C80   C     C_R   0.682092 0.619798 0.881275 0.000000
C81   C     C_R   0.688293 0.591190 0.866660 0.000000
C82   C     C_R   0.687134 0.517559 0.865381 0.000000
C83   C     C_R   0.684581 0.473670 0.878781 0.000000
C84   C     C_R   0.678392 0.502129 0.893485 0.000000
C85   C     C_R   0.665861 0.453447 0.907664 0.000000
N13   N     N_R   0.707000 0.454964 0.917628 0.000000
C86   C     C_R   0.681760 0.459328 0.931885 0.000000
C87   C     C_R   0.705155 0.503552 0.944322 0.000000
C88   C     C_R   0.672174 0.518492 0.956255 0.000000
C89   C     C_R   0.616661 0.485992 0.956232 0.000000
C90   C     C_R   0.594379 0.449054 0.942909 0.000000
C91   C     C_R   0.627653 0.443356 0.930631 0.000000
N14   N     N_R   0.615325 0.441182 0.915520 0.000000
H49   H     H_    0.680905 0.677233 0.882238 0.000000
H50   H     H_    0.693512 0.626357 0.856129 0.000000
H51   H     H_    0.688437 0.495838 0.853711 0.000000
H52   H     H_    0.686046 0.416700 0.877715 0.000000
H53   H     H_    0.747505 0.535411 0.943913 0.000000
H54   H     H_    0.689873 0.556909 0.965565 0.000000
H55   H     H_    0.591231 0.496157 0.965811 0.000000
H56   H     H_    0.552477 0.429452 0.941253 0.000000
Br8   Br    Br    0.304428 0.102329 0.431911 0.000000
C92   C     C_R   0.319487 0.099484 0.410223 0.000000
C93   C     C_R   0.285625 0.042297 0.401641 0.000000
C94   C     C_R   0.301043 0.033224 0.386268 0.000000
C95   C     C_R   0.352807 0.075953 0.380459 0.000000
C96   C     C_R   0.384803 0.136094 0.388945 0.000000
C97   C     C_R   0.366328 0.151011 0.403397 0.000000
C98   C     C_R   0.390462 0.225831 0.410409 0.000000
N15   N     N_R   0.357734 0.267090 0.416050 0.000000
C99   C     C_R   0.392689 0.319192 0.424821 0.000000
C100  C     C_R   0.382008 0.373148 0.433966 0.000000
C101  C     C_R   0.420909 0.412756 0.444064 0.000000
C102  C     C_R   0.463691 0.388311 0.446638 0.000000
C103  C     C_R   0.475472 0.337151 0.436598 0.000000
C104  C     C_R   0.442013 0.309440 0.424573 0.000000
N16   N     N_R   0.445194 0.256389 0.414115 0.000000
H57   H     H_    0.247425 0.005389 0.407031 0.000000
H58   H     H_    0.274286 0.990037 0.379114 0.000000
H59   H     H_    0.365954 0.068074 0.368476 0.000000
H60   H     H_    0.418423 0.179897 0.383119 0.000000
H61   H     H_    0.344253 0.383105 0.433632 0.000000
H62   H     H_    0.414960 0.457012 0.451401 0.000000
H63   H     H_    0.488412 0.410912 0.456457 0.000000
H64   H     H_    0.508433 0.317605 0.438621 0.000000
Br9   Br    Br    0.397748 0.559441 0.427288 0.000000
C105  C     C_R   0.388274 0.527461 0.406328 0.000000
C106  C     C_R   0.433133 0.547980 0.396106 0.000000
C107  C     C_R   0.429346 0.525479 0.380787 0.000000
C108  C     C_R   0.379305 0.493106 0.375003 0.000000
C109  C     C_R   0.333918 0.470344 0.385241 0.000000
C110  C     C_R   0.338612 0.484737 0.401101 0.000000
C111  C     C_R   0.289669 0.458460 0.411472 0.000000
N17   N     N_R   0.264371 0.379688 0.415804 0.000000
C112  C     C_R   0.215792 0.379857 0.421415 0.000000
C113  C     C_R   0.173623 0.317619 0.427486 0.000000
C114  C     C_R   0.126547 0.328613 0.432660 0.000000
C115  C     C_R   0.122066 0.400303 0.431292 0.000000
C116  C     C_R   0.166101 0.463591 0.426192 0.000000
C117  C     C_R   0.212018 0.451919 0.420601 0.000000
N18   N     N_R   0.258821 0.506110 0.414905 0.000000
H65   H     H_    0.471700 0.582082 0.400017 0.000000
H66   H     H_    0.465267 0.541204 0.372914 0.000000
H67   H     H_    0.376478 0.486762 0.362351 0.000000
H68   H     H_    0.294243 0.443228 0.380857 0.000000
H69   H     H_    0.175553 0.260922 0.427404 0.000000
H70   H     H_    0.091993 0.280246 0.436933 0.000000
H71   H     H_    0.083633 0.406436 0.434253 0.000000
H72   H     H_    0.164771 0.520266 0.426838 0.000000
Br10  Br    Br    0.679180 0.106922 0.887271 0.000000
C118  C     C_R   0.696024 0.020658 0.879962 0.000000
C119  C     C_R   0.728605 0.028534 0.866355 0.000000
C120  C     C_R   0.741546 0.967353 0.860847 0.000000
C121  C     C_R   0.715815 0.895446 0.867415 0.000000
C122  C     C_R   0.681634 0.886722 0.880646 0.000000
C123  C     C_R   0.673348 0.949535 0.887328 0.000000
C124  C     C_R   0.658832 0.943144 0.904120 0.000000
N19   N     N_R   0.701644 0.969714 0.914286 0.000000
C125  C     C_R   0.681850 0.918577 0.926515 0.000000
C126  C     C_R   0.711932 0.896604 0.936908 0.000000
C127  C     C_R   0.686808 0.833660 0.946721 0.000000
C128  C     C_R   0.631645 0.799874 0.947412 0.000000
C129  C     C_R   0.602701 0.813720 0.935378 0.000000
C130  C     C_R   0.629889 0.870665 0.924492 0.000000
N20   N     N_R   0.612647 0.882710 0.910380 0.000000
H73   H     H_    0.745138 0.083435 0.860299 0.000000
H74   H     H_    0.772530 0.975895 0.851589 0.000000
H75   H     H_    0.724874 0.846856 0.862809 0.000000
H76   H     H_    0.667731 0.832393 0.887065 0.000000
H77   H     H_    0.754962 0.920951 0.936223 0.000000
H78   H     H_    0.709967 0.812527 0.954473 0.000000
H79   H     H_    0.613099 0.758959 0.956846 0.000000
H80   H     H_    0.560347 0.781104 0.934460 0.000000
Br11  Br    Br    0.385254 0.905276 0.424084 0.000000
C131  C     C_R   0.374858 0.876035 0.402535 0.000000
C132  C     C_R   0.363802 0.924374 0.392619 0.000000
C133  C     C_R   0.350090 0.902665 0.377414 0.000000
C134  C     C_R   0.346836 0.831498 0.372371 0.000000
C135  C     C_R   0.361406 0.784252 0.382118 0.000000
C136  C     C_R   0.376943 0.808336 0.396924 0.000000
C137  C     C_R   0.394988 0.764175 0.407383 0.000000
N21   N     N_R   0.447352 0.797531 0.412894 0.000000
C138  C     C_R   0.438538 0.770446 0.427762 0.000000
C139  C     C_R   0.472913 0.798417 0.439489 0.000000
C140  C     C_R   0.455629 0.772757 0.454800 0.000000
C141  C     C_R   0.403228 0.723932 0.457863 0.000000
C142  C     C_R   0.367116 0.707769 0.446102 0.000000
C143  C     C_R   0.385876 0.723182 0.430760 0.000000
N22   N     N_R   0.356574 0.711653 0.417641 0.000000
H81   H     H_    0.368082 0.979078 0.397396 0.000000
H82   H     H_    0.342201 0.940613 0.369196 0.000000
H83   H     H_    0.334823 0.814661 0.360605 0.000000
H84   H     H_    0.361868 0.729888 0.378080 0.000000
H85   H     H_    0.513077 0.837097 0.436509 0.000000
H86   H     H_    0.482448 0.791453 0.464358 0.000000
H87   H     H_    0.389489 0.702726 0.469720 0.000000
H88   H     H_    0.325389 0.690489 0.449030 0.000000
Br12  Br    Br    0.340070 0.788059 0.110014 0.000000
C144  C     C_R   0.332324 0.696001 0.099535 0.000000
C145  C     C_R   0.299579 0.626660 0.106035 0.000000
C146  C     C_R   0.291427 0.560319 0.097722 0.000000
C147  C     C_R   0.315767 0.564121 0.082750 0.000000
C148  C     C_R   0.348863 0.633849 0.076355 0.000000
C149  C     C_R   0.357674 0.699766 0.084910 0.000000
C150  C     C_R   0.383466 0.773611 0.076915 0.000000
N23   N     N_R   0.351014 0.805493 0.068677 0.000000
C151  C     C_R   0.387024 0.842282 0.056728 0.000000
C152  C     C_R   0.378689 0.881995 0.044211 0.000000
C153  C     C_R   0.420026 0.907704 0.032420 0.000000
C154  C     C_R   0.461699 0.878809 0.031662 0.000000
C155  C     C_R   0.471822 0.843993 0.044872 0.000000
C156  C     C_R   0.436023 0.832666 0.057751 0.000000
N24   N     N_R   0.438179 0.796354 0.071205 0.000000
H89   H     H_    0.279179 0.625457 0.117392 0.000000
H90   H     H_    0.265755 0.505484 0.102836 0.000000
H91   H     H_    0.308430 0.512727 0.075938 0.000000
H92   H     H_    0.364474 0.637134 0.064202 0.000000
H93   H     H_    0.340765 0.891122 0.043516 0.000000
H94   H     H_    0.418816 0.946852 0.023154 0.000000
H95   H     H_    0.488603 0.888595 0.021149 0.000000
H96   H     H_    0.506248 0.825430 0.044966 0.000000
Br13  Br    Br    0.608860 0.794666 0.245040 0.000000
C157  C     C_R   0.541521 0.712344 0.247298 0.000000
C158  C     C_R   0.542600 0.639467 0.246127 0.000000
C159  C     C_R   0.495431 0.577837 0.244958 0.000000
C160  C     C_R   0.447245 0.589371 0.245367 0.000000
C161  C     C_R   0.446930 0.662176 0.245631 0.000000
C162  C     C_R   0.492635 0.723436 0.247115 0.000000
C163  C     C_R   0.490170 0.798429 0.243982 0.000000
N25   N     N_R   0.502573 0.855943 0.255339 0.000000
C164  C     C_R   0.519858 0.918517 0.245973 0.000000
C165  C     C_R   0.555232 0.987161 0.250338 0.000000
C166  C     C_R   0.585314 0.038506 0.238709 0.000000
C167  C     C_R   0.573156 0.023832 0.223166 0.000000
C168  C     C_R   0.533045 0.957507 0.219245 0.000000
C169  C     C_R   0.511553 0.901031 0.230462 0.000000
N26   N     N_R   0.491155 0.824026 0.228327 0.000000
H97   H     H_    0.581198 0.632485 0.244481 0.000000
H98   H     H_    0.496087 0.521123 0.242650 0.000000
H99   H     H_    0.410089 0.543002 0.243976 0.000000
H100  H     H_    0.411868 0.672580 0.242847 0.000000
H101  H     H_    0.565633 0.993758 0.262344 0.000000
H102  H     H_    0.617970 0.089726 0.241601 0.000000
H103  H     H_    0.595694 0.062900 0.213892 0.000000
H104  H     H_    0.524312 0.948119 0.207246 0.000000
Br14  Br    Br    0.449151 0.017881 0.549637 0.000000
C170  C     C_R   0.516234 0.081642 0.540588 0.000000
C171  C     C_R   0.525227 0.098557 0.524459 0.000000
C172  C     C_R   0.566873 0.163332 0.519000 0.000000
C173  C     C_R   0.595969 0.213773 0.529815 0.000000
C174  C     C_R   0.586388 0.196530 0.545738 0.000000
C175  C     C_R   0.549003 0.127476 0.551098 0.000000
C176  C     C_R   0.536130 0.113229 0.568107 0.000000
N27   N     N_R   0.535414 0.175291 0.577400 0.000000
C177  C     C_R   0.544382 0.150901 0.591347 0.000000
C178  C     C_R   0.558387 0.196578 0.603697 0.000000
C179  C     C_R   0.574446 0.168881 0.616412 0.000000
C180  C     C_R   0.582553 0.099605 0.616074 0.000000
C181  C     C_R   0.569475 0.052977 0.603197 0.000000
C182  C     C_R   0.548594 0.079447 0.590957 0.000000
N28   N     N_R   0.540281 0.048899 0.576565 0.000000
H105  H     H_    0.496958 0.065838 0.516168 0.000000
H106  H     H_    0.572880 0.178351 0.506474 0.000000
H107  H     H_    0.623686 0.269254 0.526137 0.000000
H108  H     H_    0.605178 0.240364 0.553911 0.000000
H109  H     H_    0.567185 0.256635 0.602458 0.000000
H110  H     H_    0.590438 0.209926 0.624964 0.000000
H111  H     H_    0.605222 0.087802 0.625023 0.000000
H112  H     H_    0.579860 0.001862 0.602293 0.000000
Br15  Br    Br    0.424096 0.519860 0.918700 0.000000
C183  C     C_R   0.460023 0.593321 0.933468 0.000000
C184  C     C_R   0.436402 0.609633 0.947302 0.000000
C185  C     C_R   0.468568 0.636875 0.959853 0.000000
C186  C     C_R   0.522334 0.644095 0.958494 0.000000
C187  C     C_R   0.545907 0.635968 0.943901 0.000000
C188  C     C_R   0.514172 0.615957 0.931199 0.000000
C189  C     C_R   0.535276 0.620390 0.914908 0.000000
N29   N     N_R   0.541848 0.558094 0.906759 0.000000
C190  C     C_R   0.559128 0.591169 0.892389 0.000000
C191  C     C_R   0.565833 0.555605 0.878845 0.000000
C192  C     C_R   0.578538 0.598363 0.865037 0.000000
C193  C     C_R   0.587347 0.676869 0.864997 0.000000
C194  C     C_R   0.579725 0.711480 0.878745 0.000000
C195  C     C_R   0.563706 0.666784 0.892070 0.000000
N30   N     N_R   0.544192 0.686676 0.905563 0.000000
H113  H     H_    0.392921 0.592499 0.949030 0.000000
H114  H     H_    0.450545 0.641467 0.971391 0.000000
H115  H     H_    0.545959 0.657479 0.968843 0.000000
H116  H     H_    0.588565 0.645007 0.942429 0.000000
H117  H     H_    0.565526 0.498298 0.878741 0.000000
H118  H     H_    0.584626 0.568926 0.854611 0.000000
H119  H     H_    0.596514 0.711237 0.854243 0.000000
H120  H     H_    0.582932 0.770456 0.878910 0.000000
Br16  Br    Br    0.547613 0.978751 0.448307 0.000000
C196  C     C_R   0.503326 0.037200 0.445066 0.000000
C197  C     C_R   0.484830 0.059314 0.459181 0.000000
C198  C     C_R   0.453984 0.105280 0.459467 0.000000
C199  C     C_R   0.436037 0.122209 0.445560 0.000000
C200  C     C_R   0.452389 0.098140 0.431415 0.000000
C201  C     C_R   0.489810 0.060860 0.430554 0.000000
C202  C     C_R   0.516575 0.064379 0.414328 0.000000
N31   N     N_R   0.520248 0.129496 0.404926 0.000000
C203  C     C_R   0.508282 0.096394 0.390898 0.000000
C204  C     C_R   0.495772 0.129158 0.378089 0.000000
C205  C     C_R   0.473791 0.083353 0.365883 0.000000
C206  C     C_R   0.468843 0.007210 0.365859 0.000000
C207  C     C_R   0.486061 0.975290 0.378396 0.000000
C208  C     C_R   0.504567 0.021048 0.391046 0.000000
N32   N     N_R   0.513735 0.997928 0.405341 0.000000
H121  H     H_    0.496681 0.042359 0.470251 0.000000
H122  H     H_    0.441605 0.124229 0.470636 0.000000
H123  H     H_    0.410112 0.156012 0.445678 0.000000
H124  H     H_    0.437302 0.112577 0.420754 0.000000
H125  H     H_    0.498986 0.187629 0.377890 0.000000
H126  H     H_    0.457169 0.106901 0.356951 0.000000
H127  H     H_    0.448907 0.973183 0.356236 0.000000
H128  H     H_    0.479048 0.914746 0.379027 0.000000
Br17  Br    Br    0.968742 0.436264 0.598628 0.000000
C209  C     C_R   0.909290 0.410046 0.585447 0.000000
C210  C     C_R   0.920086 0.390848 0.570510 0.000000
C211  C     C_R   0.880714 0.370113 0.559749 0.000000
C212  C     C_R   0.829125 0.363822 0.564143 0.000000
C213  C     C_R   0.819579 0.391028 0.578490 0.000000
C214  C     C_R   0.859882 0.418424 0.588864 0.000000
C215  C     C_R   0.856781 0.483345 0.597524 0.000000
N33   N     N_R   0.889958 0.515651 0.610404 0.000000
C216  C     C_R   0.896369 0.589110 0.607633 0.000000
C217  C     C_R   0.929420 0.648584 0.615449 0.000000
C218  C     C_R   0.945963 0.718682 0.607894 0.000000
C219  C     C_R   0.933487 0.724252 0.592260 0.000000
C220  C     C_R   0.894073 0.665857 0.585524 0.000000
C221  C     C_R   0.871756 0.599972 0.594254 0.000000
N34   N     N_R   0.839942 0.534101 0.588394 0.000000
H129  H     H_    0.961239 0.396229 0.566971 0.000000
H130  H     H_    0.891431 0.363983 0.547603 0.000000
H131  H     H_    0.798687 0.349814 0.555560 0.000000
H132  H     H_    0.782972 0.402508 0.580407 0.000000
H133  H     H_    0.943699 0.639745 0.626609 0.000000
H134  H     H_    0.971062 0.767917 0.613920 0.000000
H135  H     H_    0.953255 0.775280 0.585168 0.000000
H136  H     H_    0.883598 0.671088 0.573517 0.000000
Br18  Br    Br    0.958462 0.297508 0.677346 0.000000
C222  C     C_R   0.016354 0.346042 0.662669 0.000000
C223  C     C_R   0.065888 0.377251 0.669075 0.000000
C224  C     C_R   0.112012 0.401731 0.659372 0.000000
C225  C     C_R   0.107906 0.395289 0.643321 0.000000
C226  C     C_R   0.058572 0.369234 0.636691 0.000000
C227  C     C_R   0.011981 0.343233 0.646297 0.000000
C228  C     C_R   0.960198 0.317025 0.638662 0.000000
N35   N     N_R   0.935451 0.239761 0.633479 0.000000
C229  C     C_R   0.896024 0.250585 0.625111 0.000000
C230  C     C_R   0.857951 0.197715 0.616609 0.000000
C231  C     C_R   0.818358 0.217700 0.609957 0.000000
C232  C     C_R   0.816406 0.289693 0.612257 0.000000
C233  C     C_R   0.853868 0.342301 0.620841 0.000000
C234  C     C_R   0.895074 0.323693 0.626240 0.000000
N36   N     N_R   0.936411 0.371226 0.633788 0.000000
H137  H     H_    0.068512 0.378313 0.681819 0.000000
H138  H     H_    0.151201 0.422873 0.664329 0.000000
H139  H     H_    0.143794 0.409369 0.635953 0.000000
H140  H     H_    0.056503 0.367040 0.623937 0.000000
H141  H     H_    0.855292 0.139702 0.616159 0.000000
H142  H     H_    0.787758 0.176196 0.603443 0.000000
H143  H     H_    0.787090 0.306874 0.606796 0.000000
H144  H     H_    0.849612 0.395810 0.623785 0.000000
Br19  Br    Br    0.047482 0.835530 0.819309 0.000000
C235  C     C_R   0.059784 0.861588 0.840668 0.000000
C236  C     C_R   0.109461 0.875766 0.845937 0.000000
C237  C     C_R   0.116326 0.896330 0.861308 0.000000
C238  C     C_R   0.082414 0.924375 0.869740 0.000000
C239  C     C_R   0.035424 0.916974 0.863762 0.000000
C240  C     C_R   0.021034 0.870600 0.851098 0.000000
C241  C     C_R   0.965608 0.836582 0.848358 0.000000
N37   N     N_R   0.936912 0.885183 0.845516 0.000000
C242  C     C_R   0.894512 0.835228 0.838638 0.000000
C243  C     C_R   0.854408 0.851973 0.831719 0.000000
C244  C     C_R   0.817973 0.794014 0.823815 0.000000
C245  C     C_R   0.818637 0.719933 0.824534 0.000000
C246  C     C_R   0.860871 0.704511 0.830517 0.000000
C247  C     C_R   0.897647 0.762437 0.837958 0.000000
N38   N     N_R   0.940381 0.757523 0.845103 0.000000
H145  H     H_    0.140174 0.863119 0.838836 0.000000
H146  H     H_    0.146518 0.886607 0.867374 0.000000
H147  H     H_    0.087927 0.939881 0.881964 0.000000
H148  H     H_    0.008471 0.935849 0.870861 0.000000
H149  H     H_    0.850508 0.907583 0.832567 0.000000
H150  H     H_    0.787401 0.805774 0.817662 0.000000
H151  H     H_    0.783502 0.672217 0.822096 0.000000
H152  H     H_    0.861534 0.647067 0.830660 0.000000
Br20  Br    Br    0.793729 0.613082 0.914353 0.000000
C248  C     C_R   0.803154 0.647232 0.893128 0.000000
C249  C     C_R   0.788525 0.710167 0.891294 0.000000
C250  C     C_R   0.791031 0.743841 0.876836 0.000000
C251  C     C_R   0.801045 0.707183 0.863855 0.000000
C252  C     C_R   0.815547 0.642939 0.865297 0.000000
C253  C     C_R   0.819132 0.613734 0.879940 0.000000
C254  C     C_R   0.846360 0.556891 0.880383 0.000000
N39   N     N_R   0.840405 0.506124 0.893665 0.000000
C255  C     C_R   0.887830 0.494431 0.891640 0.000000
C256  C     C_R   0.915352 0.478779 0.903777 0.000000
C257  C     C_R   0.970696 0.497574 0.901339 0.000000
C258  C     C_R   0.994465 0.512393 0.886038 0.000000
C259  C     C_R   0.964685 0.520170 0.873713 0.000000
C260  C     C_R   0.915084 0.524300 0.877383 0.000000
N40   N     N_R   0.891553 0.566119 0.869413 0.000000
H153  H     H_    0.771614 0.729933 0.901516 0.000000
H154  H     H_    0.778000 0.792288 0.875542 0.000000
H155  H     H_    0.792244 0.726231 0.852815 0.000000
H156  H     H_    0.821852 0.612529 0.855006 0.000000
H157  H     H_    0.895653 0.460143 0.915381 0.000000
H158  H     H_    0.994105 0.491790 0.911045 0.000000
H159  H     H_    0.035460 0.514654 0.883580 0.000000
H160  H     H_    0.979774 0.523116 0.861628 0.000000
Br21  Br    Br    0.286827 0.712727 0.147754 0.000000
C261  C     C_R   0.257803 0.789189 0.151954 0.000000
C262  C     C_R   0.284794 0.859680 0.144971 0.000000
C263  C     C_R   0.266025 0.918364 0.147746 0.000000
C264  C     C_R   0.221932 0.907302 0.158256 0.000000
C265  C     C_R   0.194496 0.836956 0.165080 0.000000
C266  C     C_R   0.211768 0.777215 0.161734 0.000000
C267  C     C_R   0.181351 0.705226 0.169696 0.000000
N41   N     N_R   0.146293 0.641549 0.161827 0.000000
C268  C     C_R   0.120630 0.597404 0.174765 0.000000
C269  C     C_R   0.079856 0.527220 0.174780 0.000000
C270  C     C_R   0.049255 0.500403 0.188799 0.000000
C271  C     C_R   0.060259 0.542822 0.202449 0.000000
C272  C     C_R   0.105059 0.609215 0.202797 0.000000
C273  C     C_R   0.134834 0.635118 0.188831 0.000000
N42   N     N_R   0.175422 0.702653 0.186429 0.000000
H161  H     H_    0.320908 0.869685 0.137432 0.000000
H162  H     H_    0.288178 0.973786 0.142286 0.000000
H163  H     H_    0.209709 0.953693 0.161825 0.000000
H164  H     H_    0.159649 0.828987 0.173156 0.000000
H165  H     H_    0.067442 0.498560 0.163918 0.000000
H166  H     H_    0.014107 0.448630 0.188919 0.000000
H167  H     H_    0.032536 0.524458 0.212724 0.000000
H168  H     H_    0.113569 0.643138 0.213335 0.000000
Br22  Br    Br    0.206420 0.529915 0.220905 0.000000
C274  C     C_R   0.145041 0.531313 0.233215 0.000000
C275  C     C_R   0.096897 0.470926 0.232478 0.000000
C276  C     C_R   0.050261 0.474035 0.240110 0.000000
C277  C     C_R   0.051743 0.538586 0.248312 0.000000
C278  C     C_R   0.100169 0.598247 0.249301 0.000000
C279  C     C_R   0.147301 0.594243 0.242037 0.000000
C280  C     C_R   0.197550 0.659259 0.243545 0.000000
N43   N     N_R   0.217783 0.675298 0.259058 0.000000
C281  C     C_R   0.236082 0.751978 0.258117 0.000000
C282  C     C_R   0.248766 0.796889 0.271052 0.000000
C283  C     C_R   0.230360 0.856610 0.271604 0.000000
C284  C     C_R   0.203246 0.869080 0.259010 0.000000
C285  C     C_R   0.207701 0.838126 0.244368 0.000000
C286  C     C_R   0.226453 0.779413 0.243780 0.000000
N44   N     N_R   0.209655 0.724254 0.232949 0.000000
H169  H     H_    0.095370 0.422516 0.225352 0.000000
H170  H     H_    0.012404 0.426938 0.239278 0.000000
H171  H     H_    0.015092 0.542296 0.254027 0.000000
H172  H     H_    0.100825 0.649090 0.255549 0.000000
H173  H     H_    0.257714 0.775953 0.281988 0.000000
H174  H     H_    0.227859 0.883281 0.282833 0.000000
H175  H     H_    0.176911 0.901461 0.261118 0.000000
H176  H     H_    0.185222 0.844295 0.234709 0.000000
Br23  Br    Br    0.452710 0.940982 0.186035 0.000000
C287  C     C_R   0.420017 0.932127 0.206304 0.000000
C288  C     C_R   0.435701 0.995468 0.215197 0.000000
C289  C     C_R   0.399684 0.010096 0.225786 0.000000
C290  C     C_R   0.346596 0.962354 0.226523 0.000000
C291  C     C_R   0.331405 0.900611 0.217190 0.000000
C292  C     C_R   0.369984 0.880479 0.208691 0.000000
C293  C     C_R   0.356459 0.806391 0.201635 0.000000
N45   N     N_R   0.302757 0.765109 0.198998 0.000000
C294  C     C_R   0.308658 0.707875 0.190360 0.000000
C295  C     C_R   0.269075 0.643767 0.185547 0.000000
C296  C     C_R   0.283482 0.597303 0.175001 0.000000
C297  C     C_R   0.337618 0.611978 0.170742 0.000000
C298  C     C_R   0.376555 0.665364 0.179027 0.000000
C299  C     C_R   0.361729 0.714081 0.188523 0.000000
N46   N     N_R   0.393400 0.769313 0.197624 0.000000
H177  H     H_    0.472943 0.038557 0.211324 0.000000
H178  H     H_    0.410636 0.064878 0.231214 0.000000
H179  H     H_    0.315405 0.974208 0.233485 0.000000
H180  H     H_    0.289954 0.863916 0.218247 0.000000
H181  H     H_    0.228669 0.626297 0.190503 0.000000
H182  H     H_    0.252612 0.546466 0.171090 0.000000
H183  H     H_    0.349112 0.572641 0.163199 0.000000
H184  H     H_    0.416157 0.663327 0.179345 0.000000
Br24  Br    Br    0.786940 0.300672 0.522561 0.000000
C300  C     C_R   0.748200 0.361909 0.516652 0.000000
C301  C     C_R   0.706682 0.330139 0.506832 0.000000
C302  C     C_R   0.673694 0.369740 0.503160 0.000000
C303  C     C_R   0.682277 0.439872 0.509633 0.000000
C304  C     C_R   0.724232 0.471271 0.519473 0.000000
C305  C     C_R   0.759082 0.434367 0.522723 0.000000
C306  C     C_R   0.813759 0.477453 0.528117 0.000000
N47   N     N_R   0.826164 0.508317 0.543474 0.000000
C307  C     C_R   0.879990 0.521546 0.542647 0.000000
C308  C     C_R   0.914765 0.542412 0.554563 0.000000
C309  C     C_R   0.964427 0.533454 0.552225 0.000000
C310  C     C_R   0.978635 0.505775 0.538158 0.000000
C311  C     C_R   0.945736 0.492036 0.525844 0.000000
C312  C     C_R   0.897589 0.502220 0.528272 0.000000
N48   N     N_R   0.858968 0.480962 0.518126 0.000000
H185  H     H_    0.699253 0.273064 0.502380 0.000000
H186  H     H_    0.640339 0.345584 0.495690 0.000000
H187  H     H_    0.657610 0.472377 0.506220 0.000000
H188  H     H_    0.734052 0.529524 0.522822 0.000000
H189  H     H_    0.903064 0.558916 0.565768 0.000000
H190  H     H_    0.990090 0.540463 0.561960 0.000000
H191  H     H_    0.015053 0.493848 0.536606 0.000000
H192  H     H_    0.955879 0.468134 0.515073 0.000000
Br25  Br    Br    0.884576 0.244829 0.530079 0.000000
C313  C     C_R   0.954007 0.310173 0.522059 0.000000
C314  C     C_R   0.999398 0.343860 0.530560 0.000000
C315  C     C_R   0.048372 0.381659 0.522654 0.000000
C316  C     C_R   0.051177 0.392011 0.506516 0.000000
C317  C     C_R   0.004759 0.368158 0.498783 0.000000
C318  C     C_R   0.957777 0.322572 0.506231 0.000000
C319  C     C_R   0.910100 0.292448 0.497461 0.000000
N49   N     N_R   0.886770 0.213586 0.493591 0.000000
C320  C     C_R   0.844004 0.217387 0.486015 0.000000
C321  C     C_R   0.805182 0.157238 0.479572 0.000000
C322  C     C_R   0.762775 0.169972 0.473119 0.000000
C323  C     C_R   0.761567 0.243407 0.472002 0.000000
C324  C     C_R   0.800312 0.304313 0.478614 0.000000
C325  C     C_R   0.842183 0.290785 0.485369 0.000000
N50   N     N_R   0.883875 0.342056 0.492436 0.000000
H193  H     H_    0.999241 0.339810 0.543213 0.000000
H194  H     H_    0.084004 0.404547 0.529246 0.000000
H195  H     H_    0.088808 0.419315 0.499709 0.000000
H196  H     H_    0.005829 0.376522 0.486391 0.000000
H197  H     H_    0.804344 0.099893 0.480806 0.000000
H198  H     H_    0.729834 0.121191 0.469505 0.000000
H199  H     H_    0.729716 0.252633 0.466070 0.000000
H200  H     H_    0.796258 0.359573 0.478691 0.000000
Br26  Br    Br    0.921268 0.669858 0.493203 0.000000
C326  C     C_R   0.958207 0.667035 0.511667 0.000000
C327  C     C_R   0.941863 0.688300 0.526044 0.000000
C328  C     C_R   0.973874 0.700356 0.538665 0.000000
C329  C     C_R   0.022179 0.689487 0.536855 0.000000
C330  C     C_R   0.037205 0.664458 0.522778 0.000000
C331  C     C_R   0.006066 0.654742 0.510166 0.000000
C332  C     C_R   0.018796 0.618027 0.496354 0.000000
N51   N     N_R   0.978841 0.552093 0.490565 0.000000
C333  C     C_R   0.007980 0.535323 0.478782 0.000000
C334  C     C_R   0.989919 0.473395 0.469393 0.000000
C335  C     C_R   0.027483 0.454776 0.459955 0.000000
C336  C     C_R   0.081634 0.496422 0.460933 0.000000
C337  C     C_R   0.097750 0.560394 0.469917 0.000000
C338  C     C_R   0.061135 0.582768 0.478203 0.000000
N52   N     N_R   0.071799 0.639512 0.488941 0.000000
H201  H     H_    0.906021 0.701022 0.527260 0.000000
H202  H     H_    0.961345 0.719023 0.549857 0.000000
H203  H     H_    0.047714 0.699003 0.546534 0.000000
H204  H     H_    0.073166 0.651391 0.521534 0.000000
H205  H     H_    0.948648 0.435268 0.470823 0.000000
H206  H     H_    0.015009 0.402527 0.453339 0.000000
H207  H     H_    0.112356 0.476934 0.455747 0.000000
H208  H     H_    0.137637 0.583989 0.472387 0.000000
Br27  Br    Br    0.819423 0.339980 0.949088 0.000000
C339  C     C_R   0.765105 0.361038 0.961334 0.000000
C340  C     C_R   0.721810 0.303279 0.968673 0.000000
C341  C     C_R   0.685528 0.321038 0.978756 0.000000
C342  C     C_R   0.695348 0.396336 0.982527 0.000000
C343  C     C_R   0.740451 0.453143 0.975789 0.000000
C344  C     C_R   0.774208 0.436176 0.964527 0.000000
C345  C     C_R   0.821150 0.495570 0.956345 0.000000
N53   N     N_R   0.860370 0.552595 0.964755 0.000000
C346  C     C_R   0.891465 0.592283 0.952550 0.000000
C347  C     C_R   0.936702 0.653109 0.953954 0.000000
C348  C     C_R   0.966146 0.684097 0.940237 0.000000
C349  C     C_R   0.945334 0.665354 0.925743 0.000000
C350  C     C_R   0.900041 0.603152 0.924584 0.000000
C351  C     C_R   0.874117 0.563968 0.938095 0.000000
N54   N     N_R   0.829021 0.500804 0.939434 0.000000
H209  H     H_    0.716166 0.243858 0.966688 0.000000
H210  H     H_    0.650487 0.275806 0.983960 0.000000
H211  H     H_    0.667591 0.410955 0.990675 0.000000
H212  H     H_    0.746474 0.511171 0.978508 0.000000
H213  H     H_    0.949888 0.672637 0.965479 0.000000
H214  H     H_    0.006044 0.722763 0.940757 0.000000
H215  H     H_    0.966056 0.696525 0.915121 0.000000
H216  H     H_    0.886397 0.589373 0.913182 0.000000
Br28  Br    Br    0.033427 0.825497 0.985619 0.000000
C352  C     C_R   0.996743 0.835396 0.967918 0.000000
C353  C     C_R   0.023104 0.848520 0.953351 0.000000
C354  C     C_R   0.996808 0.851353 0.939989 0.000000
C355  C     C_R   0.942031 0.833885 0.941375 0.000000
C356  C     C_R   0.915308 0.821858 0.955942 0.000000
C357  C     C_R   0.943428 0.825206 0.969252 0.000000
C358  C     C_R   0.912625 0.808461 0.984030 0.000000
N55   N     N_R   0.885014 0.729166 0.987460 0.000000
C359  C     C_R   0.834453 0.730287 0.989306 0.000000
C360  C     C_R   0.788649 0.668212 0.988346 0.000000
C361  C     C_R   0.739648 0.679846 0.988395 0.000000
C362  C     C_R   0.737578 0.752744 0.990725 0.000000
C363  C     C_R   0.784734 0.815505 0.991850 0.000000
C364  C     C_R   0.832988 0.803768 0.989835 0.000000
N56   N     N_R   0.882587 0.857404 0.987154 0.000000
H217  H     H_    0.063084 0.849659 0.952389 0.000000
H218  H     H_    0.018016 0.859964 0.928411 0.000000
H219  H     H_    0.920211 0.832026 0.931202 0.000000
H220  H     H_    0.872113 0.809471 0.956819 0.000000
H221  H     H_    0.792228 0.612784 0.987872 0.000000
H222  H     H_    0.702409 0.631444 0.987975 0.000000
H223  H     H_    0.698669 0.759483 0.992207 0.000000
H224  H     H_    0.783671 0.871513 0.994622 0.000000
Br29  Br    Br    0.039952 0.472383 0.017131 0.000000
C365  C     C_R   0.990409 0.442724 0.000807 0.000000
C366  C     C_R   0.950893 0.370777 0.001613 0.000000
C367  C     C_R   0.921486 0.342510 0.988728 0.000000
C368  C     C_R   0.929424 0.388593 0.975373 0.000000
C369  C     C_R   0.962088 0.464494 0.975596 0.000000
C370  C     C_R   0.994445 0.491473 0.988054 0.000000
C371  C     C_R   0.017645 0.573660 0.990314 0.000000
N57   N     N_R   0.980810 0.613617 0.992406 0.000000
C372  C     C_R   0.008412 0.666172 0.002591 0.000000
C373  C     C_R   0.987332 0.707258 0.012472 0.000000
C374  C     C_R   0.017843 0.745012 0.024701 0.000000
C375  C     C_R   0.072120 0.753981 0.024617 0.000000
C376  C     C_R   0.093922 0.716673 0.013760 0.000000
C377  C     C_R   0.059855 0.666374 0.004210 0.000000
N58   N     N_R   0.069708 0.609315 0.996487 0.000000
H225  H     H_    0.946148 0.333503 0.011762 0.000000
H226  H     H_    0.894378 0.283413 0.988817 0.000000
H227  H     H_    0.908764 0.366028 0.964968 0.000000
H228  H     H_    0.961138 0.502317 0.966083 0.000000
H229  H     H_    0.949298 0.711618 0.010026 0.000000
H230  H     H_    0.000754 0.772762 0.033626 0.000000
H231  H     H_    0.097944 0.789737 0.032950 0.000000
H232  H     H_    0.136005 0.725901 0.012914 0.000000
Br30  Br    Br    0.248427 0.367095 0.462202 0.000000
C378  C     C_R   0.300269 0.323404 0.466252 0.000000
C379  C     C_R   0.346959 0.365014 0.473298 0.000000
C380  C     C_R   0.385427 0.332750 0.475769 0.000000
C381  C     C_R   0.378797 0.261328 0.469919 0.000000
C382  C     C_R   0.330370 0.218058 0.463918 0.000000
C383  C     C_R   0.290556 0.249086 0.462121 0.000000
C384  C     C_R   0.239025 0.203667 0.455646 0.000000
N59   N     N_R   0.199119 0.146112 0.464970 0.000000
C385  C     C_R   0.171800 0.101684 0.453558 0.000000
C386  C     C_R   0.134087 0.030068 0.456023 0.000000
C387  C     C_R   0.118664 0.983411 0.443183 0.000000
C388  C     C_R   0.142123 0.009567 0.428229 0.000000
C389  C     C_R   0.178737 0.083506 0.425863 0.000000
C390  C     C_R   0.192051 0.130415 0.438637 0.000000
N60   N     N_R   0.233372 0.198464 0.439107 0.000000
H233  H     H_    0.353852 0.423488 0.476673 0.000000
H234  H     H_    0.422253 0.365367 0.481253 0.000000
H235  H     H_    0.410227 0.237201 0.471072 0.000000
H236  H     H_    0.323221 0.158737 0.461432 0.000000
H237  H     H_    0.119502 0.010069 0.467832 0.000000
H238  H     H_    0.090110 0.925488 0.444876 0.000000
H239  H     H_    0.132314 0.971776 0.418293 0.000000
H240  H     H_    0.199437 0.100138 0.414506 0.000000
Br31  Br    Br    0.024291 0.906429 0.478902 0.000000
C391  C     C_R   0.002285 0.923334 0.499792 0.000000
C392  C     C_R   0.986154 0.863277 0.510553 0.000000
C393  C     C_R   0.972693 0.873821 0.526192 0.000000
C394  C     C_R   0.978948 0.945558 0.531234 0.000000
C395  C     C_R   0.995644 0.004821 0.520394 0.000000
C396  C     C_R   0.005300 0.994486 0.504802 0.000000
C397  C     C_R   0.023791 0.063066 0.494861 0.000000
N61   N     N_R   0.079758 0.101524 0.490777 0.000000
C398  C     C_R   0.078338 0.168285 0.485402 0.000000
C399  C     C_R   0.122360 0.230011 0.480181 0.000000
C400  C     C_R   0.112955 0.292334 0.473972 0.000000
C401  C     C_R   0.061409 0.292729 0.473993 0.000000
C402  C     C_R   0.018944 0.234751 0.481428 0.000000
C403  C     C_R   0.026871 0.170627 0.486295 0.000000
N62   N     N_R   0.989016 0.105068 0.492325 0.000000
H241  H     H_    0.986927 0.809462 0.506539 0.000000
H242  H     H_    0.959729 0.828339 0.534919 0.000000
H243  H     H_    0.972409 0.955174 0.543652 0.000000
H244  H     H_    0.004069 0.061779 0.523853 0.000000
H245  H     H_    0.162890 0.230320 0.480991 0.000000
H246  H     H_    0.144795 0.342509 0.469340 0.000000
H247  H     H_    0.055376 0.341023 0.468725 0.000000
H248  H     H_    0.980528 0.239412 0.483244 0.000000
Br32  Br    Br    0.260620 0.934967 0.512518 0.000000
C404  C     C_R   0.279392 0.953418 0.490481 0.000000
C405  C     C_R   0.331858 0.963852 0.485485 0.000000
C406  C     C_R   0.345969 0.968246 0.469568 0.000000
C407  C     C_R   0.311036 0.976656 0.458923 0.000000
C408  C     C_R   0.260584 0.976239 0.464178 0.000000
C409  C     C_R   0.242381 0.954783 0.479538 0.000000
C410  C     C_R   0.184471 0.928495 0.484129 0.000000
N63   N     N_R   0.159373 0.851550 0.489544 0.000000
C411  C     C_R   0.130429 0.862379 0.502323 0.000000
C412  C     C_R   0.121316 0.819348 0.515959 0.000000
C413  C     C_R   0.107376 0.848630 0.529915 0.000000
C414  C     C_R   0.100311 0.918532 0.529920 0.000000
C415  C     C_R   0.113731 0.963647 0.516331 0.000000
C416  C     C_R   0.131014 0.936375 0.502960 0.000000
N64   N     N_R   0.162727 0.980827 0.491154 0.000000
H249  H     H_    0.360169 0.960424 0.493975 0.000000
H250  H     H_    0.384100 0.964174 0.465445 0.000000
H251  H     H_    0.322980 0.981050 0.446454 0.000000
H252  H     H_    0.233308 0.985630 0.456134 0.000000
H253  H     H_    0.131980 0.768825 0.516008 0.000000
H254  H     H_    0.104175 0.818996 0.541087 0.000000
H255  H     H_    0.089110 0.940577 0.540886 0.000000
H256  H     H_    0.115385 0.021044 0.516526 0.000000
Br33  Br    Br    0.770890 0.150656 0.952751 0.000000
C417  C     C_R   0.736802 0.051352 0.960827 0.000000
C418  C     C_R   0.684904 0.028847 0.967512 0.000000
C419  C     C_R   0.663516 0.959591 0.975620 0.000000
C420  C     C_R   0.695796 0.917122 0.978204 0.000000
C421  C     C_R   0.747781 0.940643 0.971345 0.000000
C422  C     C_R   0.767848 0.006803 0.962368 0.000000
C423  C     C_R   0.820961 0.026621 0.953970 0.000000
N65   N     N_R   0.827707 0.041949 0.937190 0.000000
C424  C     C_R   0.876468 0.035822 0.934652 0.000000
C425  C     C_R   0.902194 0.039091 0.920304 0.000000
C426  C     C_R   0.942913 0.009813 0.919003 0.000000
C427  C     C_R   0.965593 0.996184 0.932390 0.000000
C428  C     C_R   0.941210 0.997275 0.947277 0.000000
C429  C     C_R   0.896515 0.017060 0.948159 0.000000
N66   N     N_R   0.864708 0.013803 0.961289 0.000000
H257  H     H_    0.661552 0.066021 0.966579 0.000000
H258  H     H_    0.621776 0.938704 0.980081 0.000000
H259  H     H_    0.678822 0.862919 0.984596 0.000000
H260  H     H_    0.770994 0.903574 0.971106 0.000000
H261  H     H_    0.891180 0.064037 0.910426 0.000000
H262  H     H_    0.960341 0.003947 0.907453 0.000000
H263  H     H_    0.002274 0.983856 0.930772 0.000000
H264  H     H_    0.955174 0.981436 0.958038 0.000000
Br34  Br    Br    0.625972 0.493499 0.821118 0.000000
C430  C     C_R   0.616431 0.393816 0.826441 0.000000
C431  C     C_R   0.658550 0.378963 0.832334 0.000000
C432  C     C_R   0.653662 0.305887 0.836768 0.000000
C433  C     C_R   0.607765 0.246396 0.833336 0.000000
C434  C     C_R   0.564053 0.262407 0.828305 0.000000
C435  C     C_R   0.568661 0.336743 0.824570 0.000000
C436  C     C_R   0.525104 0.347326 0.816176 0.000000
N67   N     N_R   0.473438 0.301585 0.821674 0.000000
C437  C     C_R   0.446024 0.295650 0.808664 0.000000
C438  C     C_R   0.395518 0.243484 0.806295 0.000000
C439  C     C_R   0.372679 0.248391 0.792186 0.000000
C440  C     C_R   0.400649 0.305185 0.781013 0.000000
C441  C     C_R   0.452854 0.353462 0.783418 0.000000
C442  C     C_R   0.476241 0.346038 0.797052 0.000000
N68   N     N_R   0.529277 0.377769 0.800461 0.000000
H265  H     H_    0.695595 0.425874 0.832693 0.000000
H266  H     H_    0.687272 0.294223 0.841518 0.000000
H267  H     H_    0.604618 0.187566 0.835586 0.000000
H268  H     H_    0.527195 0.215785 0.826346 0.000000
H269  H     H_    0.373380 0.202321 0.815489 0.000000
H270  H     H_    0.332500 0.209466 0.790060 0.000000
H271  H     H_    0.382654 0.309307 0.770004 0.000000
H272  H     H_    0.476226 0.390903 0.774351 0.000000
Br35  Br    Br    0.481483 0.433266 0.842438 0.000000
C443  C     C_R   0.429312 0.422075 0.859490 0.000000
C444  C     C_R   0.386261 0.446380 0.857536 0.000000
C445  C     C_R   0.353106 0.448937 0.870361 0.000000
C446  C     C_R   0.366033 0.434122 0.885118 0.000000
C447  C     C_R   0.409293 0.410351 0.887185 0.000000
C448  C     C_R   0.438509 0.399046 0.874172 0.000000
C449  C     C_R   0.477525 0.360459 0.875520 0.000000
N69   N     N_R   0.482574 0.308273 0.864191 0.000000
C450  C     C_R   0.526101 0.294371 0.869119 0.000000
C451  C     C_R   0.547934 0.242446 0.863473 0.000000
C452  C     C_R   0.596089 0.242616 0.869295 0.000000
C453  C     C_R   0.613097 0.278616 0.883142 0.000000
C454  C     C_R   0.584523 0.319844 0.890302 0.000000
C455  C     C_R   0.544492 0.333145 0.882510 0.000000
N70   N     N_R   0.514120 0.374708 0.887505 0.000000
H273  H     H_    0.378841 0.464167 0.845997 0.000000
H274  H     H_    0.318790 0.466659 0.869206 0.000000
H275  H     H_    0.341829 0.442707 0.894871 0.000000
H276  H     H_    0.416920 0.393624 0.898786 0.000000
H277  H     H_    0.527709 0.201469 0.854906 0.000000
H278  H     H_    0.616729 0.206063 0.864316 0.000000
H279  H     H_    0.645464 0.268778 0.889054 0.000000
H280  H     H_    0.588388 0.329663 0.902556 0.000000
Br36  Br    Br    0.301668 0.116687 0.845919 0.000000
C456  C     C_R   0.312151 0.134091 0.867760 0.000000
C457  C     C_R   0.314078 0.079319 0.878378 0.000000
C458  C     C_R   0.324756 0.097494 0.893818 0.000000
C459  C     C_R   0.338266 0.172167 0.898253 0.000000
C460  C     C_R   0.334923 0.226542 0.887716 0.000000
C461  C     C_R   0.320665 0.206514 0.872542 0.000000
C462  C     C_R   0.319933 0.260088 0.860253 0.000000
N71   N     N_R   0.359431 0.278502 0.847761 0.000000
C463  C     C_R   0.335793 0.309367 0.837037 0.000000
C464  C     C_R   0.357091 0.349886 0.823186 0.000000
C465  C     C_R   0.321569 0.354717 0.812224 0.000000
C466  C     C_R   0.266660 0.325594 0.816132 0.000000
C467  C     C_R   0.248796 0.310197 0.831881 0.000000
C468  C     C_R   0.284617 0.303044 0.842263 0.000000
N72   N     N_R   0.273128 0.275501 0.857244 0.000000
H281  H     H_    0.315664 0.025949 0.874338 0.000000
H282  H     H_    0.326642 0.054291 0.902067 0.000000
H283  H     H_    0.348357 0.186664 0.910244 0.000000
H284  H     H_    0.339986 0.282545 0.891813 0.000000
H285  H     H_    0.399626 0.377222 0.820711 0.000000
H286  H     H_    0.336471 0.380000 0.800569 0.000000
H287  H     H_    0.238452 0.323955 0.807225 0.000000
H288  H     H_    0.206891 0.296354 0.835589 0.000000
Br37  Br    Br    0.647081 0.272886 0.397256 0.000000
C469  C     C_R   0.627885 0.233628 0.377544 0.000000
C470  C     C_R   0.617359 0.157765 0.375733 0.000000
C471  C     C_R   0.600661 0.124896 0.361668 0.000000
C472  C     C_R   0.601614 0.170280 0.348873 0.000000
C473  C     C_R   0.612398 0.247177 0.350690 0.000000
C474  C     C_R   0.619820 0.276943 0.365616 0.000000
C475  C     C_R   0.595301 0.333390 0.369295 0.000000
N73   N     N_R   0.552397 0.316006 0.381120 0.000000
C476  C     C_R   0.519900 0.347638 0.373977 0.000000
C477  C     C_R   0.469405 0.344943 0.378908 0.000000
C478  C     C_R   0.441744 0.375313 0.369121 0.000000
C479  C     C_R   0.465685 0.413994 0.355128 0.000000
C480  C     C_R   0.517338 0.418931 0.350325 0.000000
C481  C     C_R   0.542407 0.383037 0.359718 0.000000
N74   N     N_R   0.591195 0.378735 0.356532 0.000000
H289  H     H_    0.615040 0.123615 0.386139 0.000000
H290  H     H_    0.588194 0.063875 0.360549 0.000000
H291  H     H_    0.591168 0.143943 0.337710 0.000000
H292  H     H_    0.608704 0.280908 0.340745 0.000000
H293  H     H_    0.450502 0.318952 0.389759 0.000000
H294  H     H_    0.400805 0.369069 0.372606 0.000000
H295  H     H_    0.443659 0.440130 0.348082 0.000000
H296  H     H_    0.536705 0.447786 0.339304 0.000000
Br38  Br    Br    0.614315 0.221973 0.307919 0.000000
C482  C     C_R   0.543665 0.205846 0.317142 0.000000
C483  C     C_R   0.508029 0.133484 0.321209 0.000000
C484  C     C_R   0.458336 0.125123 0.328281 0.000000
C485  C     C_R   0.446028 0.189235 0.332228 0.000000
C486  C     C_R   0.480736 0.261164 0.327643 0.000000
C487  C     C_R   0.529525 0.269156 0.319943 0.000000
C488  C     C_R   0.559679 0.336690 0.310430 0.000000
N75   N     N_R   0.603445 0.397381 0.315450 0.000000
C489  C     C_R   0.628721 0.428897 0.301527 0.000000
C490  C     C_R   0.678416 0.485889 0.299587 0.000000
C491  C     C_R   0.707190 0.491205 0.285191 0.000000
C492  C     C_R   0.685997 0.438580 0.273522 0.000000
C493  C     C_R   0.633119 0.387630 0.275171 0.000000
C494  C     C_R   0.603828 0.386829 0.289093 0.000000
N76   N     N_R   0.557117 0.331572 0.294123 0.000000
H297  H     H_    0.518416 0.083320 0.318760 0.000000
H298  H     H_    0.429750 0.068312 0.331292 0.000000
H299  H     H_    0.408415 0.183052 0.338489 0.000000
H300  H     H_    0.468319 0.309944 0.329491 0.000000
H301  H     H_    0.697620 0.517554 0.309607 0.000000
H302  H     H_    0.748190 0.531440 0.283595 0.000000
H303  H     H_    0.710852 0.438137 0.262931 0.000000
H304  H     H_    0.616883 0.346261 0.266205 0.000000
Br39  Br    Br    0.792531 0.615689 0.337197 0.000000
C495  C     C_R   0.761279 0.577684 0.357428 0.000000
C496  C     C_R   0.753269 0.626973 0.368226 0.000000
C497  C     C_R   0.735095 0.600574 0.383315 0.000000
C498  C     C_R   0.718578 0.522904 0.387037 0.000000
C499  C     C_R   0.723893 0.472877 0.375846 0.000000
C500  C     C_R   0.747073 0.501441 0.361321 0.000000
C501  C     C_R   0.753927 0.451903 0.349346 0.000000
N77   N     N_R   0.720873 0.435565 0.336713 0.000000
C502  C     C_R   0.752959 0.416361 0.325554 0.000000
C503  C     C_R   0.741317 0.387687 0.310710 0.000000
C504  C     C_R   0.782804 0.380439 0.300797 0.000000
C505  C     C_R   0.834037 0.395490 0.306232 0.000000
C506  C     C_R   0.843153 0.412767 0.321966 0.000000
C507  C     C_R   0.802032 0.423263 0.331312 0.000000
N78   N     N_R   0.803164 0.441847 0.346737 0.000000
H305  H     H_    0.762093 0.686165 0.364886 0.000000
H306  H     H_    0.734980 0.642572 0.391877 0.000000
H307  H     H_    0.702833 0.499530 0.398590 0.000000
H308  H     H_    0.711111 0.412197 0.378484 0.000000
H309  H     H_    0.701038 0.368470 0.306898 0.000000
H310  H     H_    0.774775 0.360550 0.288854 0.000000
H311  H     H_    0.865839 0.388638 0.298426 0.000000
H312  H     H_    0.881840 0.419816 0.326639 0.000000
Br40  Br    Br    0.793385 0.377591 0.157724 0.000000
C508  C     C_R   0.774305 0.346267 0.136793 0.000000
C509  C     C_R   0.775709 0.277319 0.131433 0.000000
C510  C     C_R   0.763733 0.255368 0.116219 0.000000
C511  C     C_R   0.753004 0.304632 0.106049 0.000000
C512  C     C_R   0.751625 0.373708 0.111406 0.000000
C513  C     C_R   0.761213 0.394237 0.126761 0.000000
C514  C     C_R   0.751430 0.460583 0.133333 0.000000
N79   N     N_R   0.705567 0.446422 0.143473 0.000000
C515  C     C_R   0.721752 0.507044 0.153156 0.000000
C516  C     C_R   0.693829 0.522992 0.166026 0.000000
C517  C     C_R   0.720271 0.581858 0.175800 0.000000
C518  C     C_R   0.773602 0.626226 0.172120 0.000000
C519  C     C_R   0.798868 0.615483 0.158047 0.000000
C520  C     C_R   0.772659 0.555732 0.148640 0.000000
N80   N     N_R   0.793002 0.531172 0.135489 0.000000
H313  H     H_    0.786563 0.240611 0.139103 0.000000
H314  H     H_    0.765013 0.201410 0.112020 0.000000
H315  H     H_    0.748325 0.290282 0.093801 0.000000
H316  H     H_    0.749115 0.415807 0.103221 0.000000
H317  H     H_    0.652320 0.491488 0.168496 0.000000
H318  H     H_    0.699316 0.593161 0.186326 0.000000
H319  H     H_    0.794819 0.671479 0.179910 0.000000
H320  H     H_    0.839864 0.648055 0.155455 0.000000
Br41  Br    Br    0.442347 0.140223 0.667192 0.000000
C521  C     C_R   0.513631 0.208157 0.662143 0.000000
C522  C     C_R   0.548961 0.178443 0.654583 0.000000
C523  C     C_R   0.602668 0.221914 0.652274 0.000000
C524  C     C_R   0.618897 0.299020 0.654274 0.000000
C525  C     C_R   0.583222 0.328992 0.661070 0.000000
C526  C     C_R   0.531784 0.284722 0.665978 0.000000
C527  C     C_R   0.501574 0.318697 0.676721 0.000000
N81   N     N_R   0.460890 0.345417 0.671953 0.000000
C528  C     C_R   0.445387 0.367043 0.686220 0.000000
C529  C     C_R   0.410020 0.404450 0.689240 0.000000
C530  C     C_R   0.392167 0.410557 0.704643 0.000000
C531  C     C_R   0.412639 0.382314 0.716929 0.000000
C532  C     C_R   0.455354 0.356815 0.713929 0.000000
C533  C     C_R   0.472300 0.351584 0.698388 0.000000
N82   N     N_R   0.512194 0.327132 0.692916 0.000000
H321  H     H_    0.534684 0.120806 0.650334 0.000000
H322  H     H_    0.631069 0.197374 0.647192 0.000000
H323  H     H_    0.659852 0.335822 0.651240 0.000000
H324  H     H_    0.595817 0.388184 0.662480 0.000000
H325  H     H_    0.398781 0.431278 0.679914 0.000000
H326  H     H_    0.361937 0.436766 0.707070 0.000000
H327  H     H_    0.396267 0.382426 0.728887 0.000000
H328  H     H_    0.473261 0.339955 0.723656 0.000000
Br42  Br    Br    0.269445 0.362864 0.637510 0.000000
C534  C     C_R   0.325883 0.365397 0.622455 0.000000
C535  C     C_R   0.366156 0.424795 0.614659 0.000000
C536  C     C_R   0.393548 0.409002 0.601734 0.000000
C537  C     C_R   0.378021 0.336363 0.596145 0.000000
C538  C     C_R   0.341288 0.278426 0.604897 0.000000
C539  C     C_R   0.322325 0.294364 0.619190 0.000000
C540  C     C_R   0.309963 0.246598 0.633162 0.000000
N83   N     N_R   0.261270 0.185676 0.635862 0.000000
C541  C     C_R   0.261713 0.174978 0.651812 0.000000
C542  C     C_R   0.220272 0.129375 0.661819 0.000000
C543  C     C_R   0.226167 0.134096 0.678041 0.000000
C544  C     C_R   0.274393 0.179999 0.683994 0.000000
C545  C     C_R   0.316001 0.225928 0.673852 0.000000
C546  C     C_R   0.307847 0.225376 0.657940 0.000000
N84   N     N_R   0.340591 0.272403 0.646501 0.000000
H329  H     H_    0.377473 0.483610 0.617876 0.000000
H330  H     H_    0.424466 0.454771 0.595504 0.000000
H331  H     H_    0.396484 0.323560 0.585593 0.000000
H332  H     H_    0.328673 0.221853 0.600548 0.000000
H333  H     H_    0.182456 0.095425 0.657237 0.000000
H334  H     H_    0.193118 0.100750 0.686156 0.000000
H335  H     H_    0.278936 0.181361 0.696654 0.000000
H336  H     H_    0.352834 0.262937 0.678430 0.000000
Br43  Br    Br    0.425639 0.187522 0.586664 0.000000
C547  C     C_R   0.401593 0.171414 0.607581 0.000000
C548  C     C_R   0.352133 0.116512 0.611195 0.000000
C549  C     C_R   0.333710 0.099940 0.626371 0.000000
C550  C     C_R   0.365640 0.134419 0.638193 0.000000
C551  C     C_R   0.410323 0.198653 0.634525 0.000000
C552  C     C_R   0.426703 0.220561 0.618956 0.000000
C553  C     C_R   0.464778 0.298759 0.615872 0.000000
N85   N     N_R   0.506584 0.321746 0.603537 0.000000
C554  C     C_R   0.543916 0.377184 0.611366 0.000000
C555  C     C_R   0.592115 0.428044 0.605509 0.000000
C556  C     C_R   0.624052 0.479367 0.615607 0.000000
C557  C     C_R   0.610524 0.474462 0.631565 0.000000
C558  C     C_R   0.558825 0.431295 0.637065 0.000000
C559  C     C_R   0.525865 0.385417 0.626522 0.000000
N86   N     N_R   0.473044 0.346317 0.628999 0.000000
H337  H     H_    0.323999 0.093882 0.602207 0.000000
H338  H     H_    0.292213 0.067027 0.628626 0.000000
H339  H     H_    0.350769 0.119762 0.650322 0.000000
H340  H     H_    0.429759 0.233261 0.644117 0.000000
H341  H     H_    0.603000 0.434593 0.593264 0.000000
H342  H     H_    0.659618 0.524775 0.610987 0.000000
H343  H     H_    0.637378 0.514999 0.638931 0.000000
H344  H     H_    0.543467 0.437314 0.648919 0.000000
Br44  Br    Br    0.496450 0.540129 0.803759 0.000000
C560  C     C_R   0.564730 0.610211 0.809380 0.000000
C561  C     C_R   0.577454 0.620684 0.824803 0.000000
C562  C     C_R   0.630403 0.657995 0.828237 0.000000
C563  C     C_R   0.668548 0.690691 0.816520 0.000000
C564  C     C_R   0.653462 0.692347 0.801426 0.000000
C565  C     C_R   0.603513 0.646274 0.797868 0.000000
C566  C     C_R   0.590147 0.635488 0.781927 0.000000
N87   N     N_R   0.576909 0.560917 0.775541 0.000000
C567  C     C_R   0.538938 0.564670 0.765631 0.000000
C568  C     C_R   0.505597 0.506465 0.757060 0.000000
C569  C     C_R   0.456952 0.510524 0.752957 0.000000
C570  C     C_R   0.444043 0.574576 0.756409 0.000000
C571  C     C_R   0.482196 0.638026 0.762370 0.000000
C572  C     C_R   0.530085 0.633658 0.766593 0.000000
N88   N     N_R   0.564678 0.683893 0.775891 0.000000
H345  H     H_    0.548085 0.589841 0.833756 0.000000
H346  H     H_    0.644427 0.659984 0.839836 0.000000
H347  H     H_    0.708946 0.720156 0.819661 0.000000
H348  H     H_    0.681196 0.725134 0.792189 0.000000
H349  H     H_    0.514220 0.455835 0.754401 0.000000
H350  H     H_    0.427644 0.461914 0.747865 0.000000
H351  H     H_    0.404530 0.575676 0.754044 0.000000
H352  H     H_    0.472597 0.687186 0.764927 0.000000
Br45  Br    Br    0.596452 0.030946 0.302298 0.000000
C573  C     C_R   0.619163 0.089841 0.283374 0.000000
C574  C     C_R   0.673944 0.117442 0.279241 0.000000
C575  C     C_R   0.695306 0.177296 0.268431 0.000000
C576  C     C_R   0.662089 0.212445 0.262572 0.000000
C577  C     C_R   0.607304 0.184346 0.266675 0.000000
C578  C     C_R   0.584144 0.118675 0.276147 0.000000
C579  C     C_R   0.524454 0.087257 0.280028 0.000000
N89   N     N_R   0.492151 0.006864 0.281853 0.000000
C580  C     C_R   0.444620 0.014173 0.286741 0.000000
C581  C     C_R   0.394088 0.959668 0.287241 0.000000
C582  C     C_R   0.351322 0.976936 0.293866 0.000000
C583  C     C_R   0.358958 0.050855 0.298229 0.000000
C584  C     C_R   0.408739 0.107113 0.296448 0.000000
C585  C     C_R   0.449126 0.088745 0.288979 0.000000
N90   N     N_R   0.495952 0.138463 0.282903 0.000000
H353  H     H_    0.700587 0.094748 0.285188 0.000000
H354  H     H_    0.738351 0.199787 0.265397 0.000000
H355  H     H_    0.679005 0.262742 0.254854 0.000000
H356  H     H_    0.583524 0.215914 0.262555 0.000000
H357  H     H_    0.385927 0.906191 0.281862 0.000000
H358  H     H_    0.311227 0.934198 0.294540 0.000000
H359  H     H_    0.324730 0.066921 0.301203 0.000000
H360  H     H_    0.414807 0.164796 0.299854 0.000000
Br46  Br    Br    0.972427 0.214147 0.806991 0.000000
C586  C     C_R   0.900565 0.193167 0.815849 0.000000
C587  C     C_R   0.879322 0.250458 0.817709 0.000000
C588  C     C_R   0.829976 0.235817 0.825815 0.000000
C589  C     C_R   0.800251 0.162544 0.831118 0.000000
C590  C     C_R   0.819143 0.103858 0.827730 0.000000
C591  C     C_R   0.869762 0.119439 0.820429 0.000000
C592  C     C_R   0.887212 0.059212 0.814152 0.000000
N91   N     N_R   0.879225 0.039751 0.798138 0.000000
C593  C     C_R   0.911422 0.998144 0.795898 0.000000
C594  C     C_R   0.924477 0.971635 0.781682 0.000000
C595  C     C_R   0.963237 0.938005 0.781168 0.000000
C596  C     C_R   0.985099 0.925873 0.794953 0.000000
C597  C     C_R   0.969634 0.949176 0.809464 0.000000
C598  C     C_R   0.934659 0.989538 0.809696 0.000000
N92   N     N_R   0.920316 0.027047 0.822106 0.000000
H361  H     H_    0.901149 0.306511 0.812772 0.000000
H362  H     H_    0.813782 0.281033 0.827752 0.000000
H363  H     H_    0.760732 0.150772 0.836973 0.000000
H364  H     H_    0.793852 0.046171 0.830610 0.000000
H365  H     H_    0.907539 0.980065 0.770932 0.000000
H366  H     H_    0.976690 0.921175 0.769915 0.000000
H367  H     H_    0.015700 0.899888 0.794030 0.000000
H368  H     H_    0.988793 0.942360 0.819975 0.000000
Br47  Br    Br    0.646471 0.804394 0.753707 0.000000
C599  C     C_R   0.673782 0.912423 0.749757 0.000000
C600  C     C_R   0.665205 0.939021 0.735798 0.000000
C601  C     C_R   0.680357 0.016965 0.732951 0.000000
C602  C     C_R   0.715399 0.067311 0.742351 0.000000
C603  C     C_R   0.727850 0.039754 0.756007 0.000000
C604  C     C_R   0.700414 0.964399 0.760367 0.000000
C605  C     C_R   0.699032 0.940550 0.776255 0.000000
N93   N     N_R   0.653863 0.884701 0.783879 0.000000
C606  C     C_R   0.673518 0.882384 0.798129 0.000000
C607  C     C_R   0.647664 0.837224 0.810785 0.000000
C608  C     C_R   0.675092 0.843381 0.824498 0.000000
C609  C     C_R   0.728599 0.887884 0.824645 0.000000
C610  C     C_R   0.754638 0.931155 0.811534 0.000000
C611  C     C_R   0.725786 0.931598 0.798761 0.000000
N94   N     N_R   0.743828 0.972049 0.785115 0.000000
H369  H     H_    0.641168 0.896581 0.728229 0.000000
H370  H     H_    0.667425 0.039563 0.722816 0.000000
H371  H     H_    0.732084 0.127151 0.738831 0.000000
H372  H     H_    0.753371 0.078975 0.764059 0.000000
H373  H     H_    0.607471 0.795961 0.809823 0.000000
H374  H     H_    0.656676 0.807282 0.834766 0.000000
H375  H     H_    0.751062 0.883470 0.834584 0.000000
H376  H     H_    0.796686 0.960137 0.811290 0.000000
Br48  Br    Br    0.416102 0.819465 0.743555 0.000000
C612  C     C_R   0.447630 0.750536 0.735138 0.000000
C613  C     C_R   0.414114 0.683821 0.728843 0.000000
C614  C     C_R   0.435709 0.634028 0.721743 0.000000
C615  C     C_R   0.490320 0.649103 0.721972 0.000000
C616  C     C_R   0.523666 0.714929 0.728855 0.000000
C617  C     C_R   0.502890 0.767451 0.734940 0.000000
C618  C     C_R   0.538610 0.842245 0.740298 0.000000
N95   N     N_R   0.548968 0.908905 0.730861 0.000000
C619  C     C_R   0.560235 0.963215 0.742040 0.000000
C620  C     C_R   0.577772 0.042038 0.740247 0.000000
C621  C     C_R   0.573378 0.084518 0.753100 0.000000
C622  C     C_R   0.554890 0.047512 0.767494 0.000000
C623  C     C_R   0.551287 0.972581 0.769670 0.000000
C624  C     C_R   0.556405 0.931652 0.756767 0.000000
N96   N     N_R   0.549162 0.856320 0.756390 0.000000
H377  H     H_    0.370920 0.671326 0.729262 0.000000
H378  H     H_    0.409837 0.582231 0.716481 0.000000
H379  H     H_    0.506182 0.608497 0.716676 0.000000
H380  H     H_    0.566379 0.728275 0.729132 0.000000
H381  H     H_    0.596212 0.072227 0.729661 0.000000
H382  H     H_    0.581647 0.145518 0.751685 0.000000
H383  H     H_    0.544929 0.078038 0.777194 0.000000
H384  H     H_    0.538797 0.945815 0.780940 0.000000
Br49  Br    Br    0.285889 0.536729 0.445562 0.000000
C625  C     C_R   0.276454 0.571201 0.464702 0.000000
C626  C     C_R   0.310810 0.561745 0.475349 0.000000
C627  C     C_R   0.305207 0.581108 0.490505 0.000000
C628  C     C_R   0.259668 0.596082 0.494962 0.000000
C629  C     C_R   0.228356 0.611226 0.483961 0.000000
C630  C     C_R   0.240008 0.607601 0.468187 0.000000
C631  C     C_R   0.220602 0.654430 0.456947 0.000000
N97   N     N_R   0.234472 0.664142 0.440286 0.000000
C632  C     C_R   0.227472 0.731284 0.437761 0.000000
C633  C     C_R   0.249694 0.779480 0.424991 0.000000
C634  C     C_R   0.244479 0.850469 0.425014 0.000000
C635  C     C_R   0.211903 0.867840 0.436635 0.000000
C636  C     C_R   0.191860 0.820242 0.449916 0.000000
C637  C     C_R   0.203928 0.754562 0.450726 0.000000
N98   N     N_R   0.197843 0.707856 0.463476 0.000000
H385  H     H_    0.343301 0.542004 0.471485 0.000000
H386  H     H_    0.334781 0.581479 0.498793 0.000000
H387  H     H_    0.251304 0.604335 0.507155 0.000000
H388  H     H_    0.197716 0.632866 0.487885 0.000000
H389  H     H_    0.272993 0.764470 0.415563 0.000000
H390  H     H_    0.263575 0.890931 0.415427 0.000000
H391  H     H_    0.203120 0.919816 0.435272 0.000000
H392  H     H_    0.167754 0.834480 0.459210 0.000000
Br50  Br    Br    0.037845 0.591801 0.304016 0.000000
C638  C     C_R   0.070914 0.527698 0.313557 0.000000
C639  C     C_R   0.042906 0.449925 0.312908 0.000000
C640  C     C_R   0.063530 0.398350 0.319056 0.000000
C641  C     C_R   0.111156 0.424880 0.326519 0.000000
C642  C     C_R   0.138513 0.502837 0.327702 0.000000
C643  C     C_R   0.120059 0.554980 0.320882 0.000000
C644  C     C_R   0.156340 0.635569 0.319014 0.000000
N99   N     N_R   0.176807 0.659205 0.303400 0.000000
C645  C     C_R   0.161340 0.719865 0.301687 0.000000
C646  C     C_R   0.140671 0.734985 0.288010 0.000000
C647  C     C_R   0.114093 0.787001 0.288163 0.000000
C648  C     C_R   0.108507 0.822655 0.302053 0.000000
C649  C     C_R   0.122797 0.798668 0.316055 0.000000
C650  C     C_R   0.145524 0.742442 0.316049 0.000000
N100  N     N_R   0.144213 0.692152 0.328096 0.000000
H393  H     H_    0.005003 0.429461 0.307199 0.000000
H394  H     H_    0.041915 0.337360 0.318299 0.000000
H395  H     H_    0.126867 0.384083 0.331466 0.000000
H396  H     H_    0.174674 0.524114 0.333996 0.000000
H397  H     H_    0.142379 0.703093 0.277534 0.000000
H398  H     H_    0.097833 0.799821 0.277468 0.000000
H399  H     H_    0.088554 0.864604 0.302237 0.000000
H400  H     H_    0.112345 0.821350 0.326511 0.000000
Br51  Br    Br    0.291945 0.576619 0.259435 0.000000
C651  C     C_R   0.329260 0.678287 0.255494 0.000000
C652  C     C_R   0.318968 0.693230 0.241000 0.000000
C653  C     C_R   0.336475 0.764306 0.235537 0.000000
C654  C     C_R   0.374494 0.821406 0.242802 0.000000
C655  C     C_R   0.387179 0.807444 0.257213 0.000000
C656  C     C_R   0.363565 0.736341 0.264056 0.000000
C657  C     C_R   0.365000 0.735176 0.280715 0.000000
N101  N     N_R   0.316010 0.705571 0.289680 0.000000
C658  C     C_R   0.328439 0.748062 0.302780 0.000000
C659  C     C_R   0.295190 0.746644 0.315750 0.000000
C660  C     C_R   0.312628 0.804028 0.326552 0.000000
C661  C     C_R   0.362811 0.861779 0.324381 0.000000
C662  C     C_R   0.398084 0.858531 0.312035 0.000000
C663  C     C_R   0.380172 0.800604 0.301442 0.000000
N102  N     N_R   0.406310 0.793656 0.287764 0.000000
H401  H     H_    0.289621 0.649345 0.234802 0.000000
H402  H     H_    0.312170 0.771135 0.226932 0.000000
H403  H     H_    0.392677 0.878771 0.238467 0.000000
H404  H     H_    0.413251 0.856020 0.262999 0.000000
H405  H     H_    0.258136 0.700232 0.318005 0.000000
H406  H     H_    0.287275 0.801963 0.336961 0.000000
H407  H     H_    0.376756 0.905790 0.333040 0.000000
H408  H     H_    0.438239 0.901169 0.310609 0.000000
Br52  Br    Br    0.209354 0.016409 0.239589 0.000000
C664  C     C_R   0.144007 0.949476 0.232004 0.000000
C665  C     C_R   0.096790 0.918893 0.241427 0.000000
C666  C     C_R   0.052505 0.864158 0.235391 0.000000
C667  C     C_R   0.056365 0.838242 0.220222 0.000000
C668  C     C_R   0.104572 0.866802 0.211180 0.000000
C669  C     C_R   0.148088 0.923275 0.217146 0.000000
C670  C     C_R   0.200898 0.950195 0.208570 0.000000
N103  N     N_R   0.225078 0.027584 0.202832 0.000000
C671  C     C_R   0.258663 0.016414 0.191231 0.000000
C672  C     C_R   0.289080 0.069917 0.180139 0.000000
C673  C     C_R   0.324763 0.050521 0.169942 0.000000
C674  C     C_R   0.333036 0.981361 0.172033 0.000000
C675  C     C_R   0.299899 0.926156 0.182672 0.000000
C676  C     C_R   0.261759 0.943781 0.191985 0.000000
N104  N     N_R   0.225333 0.897404 0.202848 0.000000
H409  H     H_    0.094605 0.937072 0.253522 0.000000
H410  H     H_    0.015178 0.840504 0.242641 0.000000
H411  H     H_    0.022001 0.794425 0.215554 0.000000
H412  H     H_    0.108120 0.844930 0.199476 0.000000
H413  H     H_    0.287779 0.127097 0.180158 0.000000
H414  H     H_    0.350541 0.092213 0.161340 0.000000
H415  H     H_    0.363279 0.968715 0.164526 0.000000
H416  H     H_    0.301901 0.869764 0.182586 0.000000
Br53  Br    Br    0.270887 0.836884 0.819250 0.000000
C677  C     C_R   0.272356 0.876430 0.839871 0.000000
C678  C     C_R   0.249629 0.931565 0.841196 0.000000
C679  C     C_R   0.236881 0.952711 0.855807 0.000000
C680  C     C_R   0.240678 0.912345 0.869027 0.000000
C681  C     C_R   0.259978 0.854831 0.867480 0.000000
C682  C     C_R   0.282617 0.843179 0.853574 0.000000
C683  C     C_R   0.301665 0.779881 0.853307 0.000000
N105  N     N_R   0.345209 0.787277 0.842595 0.000000
C684  C     C_R   0.322998 0.722673 0.834094 0.000000
C685  C     C_R   0.337562 0.710148 0.818828 0.000000
C686  C     C_R   0.298719 0.665191 0.809306 0.000000
C687  C     C_R   0.246327 0.629553 0.815413 0.000000
C688  C     C_R   0.233864 0.631717 0.831467 0.000000
C689  C     C_R   0.272717 0.678511 0.840578 0.000000
N106  N     N_R   0.260824 0.707762 0.854067 0.000000
H417  H     H_    0.238594 0.954914 0.830726 0.000000
H418  H     H_    0.217246 0.994560 0.856599 0.000000
H419  H     H_    0.225709 0.921687 0.880622 0.000000
H420  H     H_    0.254295 0.815673 0.877043 0.000000
H421  H     H_    0.376916 0.738022 0.813804 0.000000
H422  H     H_    0.309088 0.658563 0.796961 0.000000
H423  H     H_    0.216506 0.595403 0.807698 0.000000
H424  H     H_    0.193456 0.602644 0.836537 0.000000
Br54  Br    Br    0.513674 0.078419 0.810674 0.000000
C690  C     C_R   0.442790 0.061187 0.804804 0.000000
C691  C     C_R   0.427664 0.040382 0.789602 0.000000
C692  C     C_R   0.375188 0.025550 0.785680 0.000000
C693  C     C_R   0.337438 0.029132 0.797155 0.000000
C694  C     C_R   0.352274 0.045814 0.812457 0.000000
C695  C     C_R   0.405300 0.064046 0.816393 0.000000
C696  C     C_R   0.418407 0.065279 0.833127 0.000000
N107  N     N_R   0.418119 0.997453 0.840700 0.000000
C697  C     C_R   0.415700 0.016786 0.855749 0.000000
C698  C     C_R   0.407961 0.967820 0.868247 0.000000
C699  C     C_R   0.419678 0.999805 0.882726 0.000000
C700  C     C_R   0.427433 0.075566 0.884730 0.000000
C701  C     C_R   0.428861 0.123657 0.872072 0.000000
C702  C     C_R   0.423086 0.092647 0.857389 0.000000
N108  N     N_R   0.423556 0.127676 0.843349 0.000000
H425  H     H_    0.456312 0.034608 0.780648 0.000000
H426  H     H_    0.363622 0.009779 0.773738 0.000000
H427  H     H_    0.295682 0.015174 0.794373 0.000000
H428  H     H_    0.321177 0.040557 0.821378 0.000000
H429  H     H_    0.398560 0.907591 0.866389 0.000000
H430  H     H_    0.423510 0.966715 0.892678 0.000000
H431  H     H_    0.426579 0.093124 0.896701 0.000000
H432  H     H_    0.429366 0.180718 0.874001 0.000000
Br55  Br    Br    0.612430 0.014076 0.801606 0.000000
C703  C     C_R   0.592711 0.963905 0.821480 0.000000
C704  C     C_R   0.617206 0.000218 0.834563 0.000000
C705  C     C_R   0.616407 0.957847 0.847778 0.000000
C706  C     C_R   0.594962 0.879577 0.847579 0.000000
C707  C     C_R   0.565045 0.844430 0.835192 0.000000
C708  C     C_R   0.561330 0.887372 0.822379 0.000000
C709  C     C_R   0.515041 0.859059 0.812637 0.000000
N109  N     N_R   0.468462 0.873224 0.817651 0.000000
C710  C     C_R   0.441382 0.861253 0.804661 0.000000
C711  C     C_R   0.393777 0.872794 0.803144 0.000000
C712  C     C_R   0.364671 0.841591 0.790310 0.000000
C713  C     C_R   0.384674 0.800544 0.779737 0.000000
C714  C     C_R   0.437469 0.801783 0.780222 0.000000
C715  C     C_R   0.465326 0.830744 0.793191 0.000000
N110  N     N_R   0.514752 0.831168 0.797158 0.000000
H433  H     H_    0.636434 0.061516 0.834799 0.000000
H434  H     H_    0.631086 0.986354 0.858360 0.000000
H435  H     H_    0.598238 0.846229 0.857604 0.000000
H436  H     H_    0.547754 0.782855 0.835022 0.000000
H437  H     H_    0.379064 0.901691 0.812323 0.000000
H438  H     H_    0.325347 0.845361 0.788819 0.000000
H439  H     H_    0.358458 0.768969 0.770874 0.000000
H440  H     H_    0.455394 0.779657 0.770911 0.000000
Br56  Br    Br    0.452343 0.606717 0.879599 0.000000
C716  C     C_R   0.472793 0.662581 0.860645 0.000000
C717  C     C_R   0.470488 0.609993 0.849629 0.000000
C718  C     C_R   0.449497 0.610457 0.835472 0.000000
C719  C     C_R   0.439138 0.673120 0.831159 0.000000
C720  C     C_R   0.446306 0.731363 0.841720 0.000000
C721  C     C_R   0.466283 0.730630 0.856532 0.000000
C722  C     C_R   0.485377 0.806027 0.865085 0.000000
N111  N     N_R   0.478107 0.868656 0.857687 0.000000
C723  C     C_R   0.507059 0.926289 0.866578 0.000000
C724  C     C_R   0.523223 0.003037 0.863280 0.000000
C725  C     C_R   0.542504 0.050924 0.875586 0.000000
C726  C     C_R   0.547657 0.023072 0.890325 0.000000
C727  C     C_R   0.538220 0.946523 0.892503 0.000000
C728  C     C_R   0.521273 0.899656 0.880030 0.000000
N112  N     N_R   0.509252 0.823297 0.880139 0.000000
H441  H     H_    0.478092 0.561673 0.853823 0.000000
H442  H     H_    0.438315 0.560433 0.828368 0.000000
H443  H     H_    0.427103 0.676159 0.819327 0.000000
H444  H     H_    0.437249 0.778360 0.837786 0.000000
H445  H     H_    0.517710 0.025267 0.851927 0.000000
H446  H     H_    0.546525 0.108757 0.874313 0.000000
H447  H     H_    0.559106 0.061108 0.900144 0.000000
H448  H     H_    0.539630 0.924440 0.904007 0.000000
Br57  Br    Br    0.325122 0.225855 0.108633 0.000000
C729  C     C_R   0.347768 0.331973 0.105195 0.000000
C730  C     C_R   0.336440 0.377136 0.116677 0.000000
C731  C     C_R   0.355286 0.455653 0.114462 0.000000
C732  C     C_R   0.383519 0.487966 0.100594 0.000000
C733  C     C_R   0.393387 0.442280 0.088956 0.000000
C734  C     C_R   0.376894 0.364210 0.091448 0.000000
C735  C     C_R   0.390986 0.318339 0.079172 0.000000
N113  N     N_R   0.444336 0.343780 0.072444 0.000000
C736  C     C_R   0.437823 0.296989 0.060019 0.000000
C737  C     C_R   0.473209 0.304724 0.047155 0.000000
C738  C     C_R   0.461337 0.245560 0.036596 0.000000
C739  C     C_R   0.415056 0.181305 0.039127 0.000000
C740  C     C_R   0.374827 0.182587 0.050200 0.000000
C741  C     C_R   0.386947 0.241520 0.060542 0.000000
N114  N     N_R   0.353530 0.253505 0.072049 0.000000
H449  H     H_    0.314173 0.350464 0.127520 0.000000
H450  H     H_    0.348302 0.492681 0.123440 0.000000
H451  H     H_    0.397832 0.549510 0.098867 0.000000
H452  H     H_    0.413466 0.467584 0.077756 0.000000
H453  H     H_    0.510225 0.353333 0.045695 0.000000
H454  H     H_    0.488384 0.248931 0.026326 0.000000
H455  H     H_    0.407494 0.134170 0.031048 0.000000
H456  H     H_    0.335256 0.138930 0.050517 0.000000
Br58  Br    Br    0.533511 0.255613 0.073360 0.000000
C742  C     C_R   0.570718 0.260502 0.053417 0.000000
C743  C     C_R   0.555898 0.199868 0.043394 0.000000
C744  C     C_R   0.578050 0.207086 0.028044 0.000000
C745  C     C_R   0.619127 0.272857 0.023243 0.000000
C746  C     C_R   0.636256 0.331451 0.033646 0.000000
C747  C     C_R   0.610931 0.326444 0.048539 0.000000
C748  C     C_R   0.632796 0.389548 0.059050 0.000000
N115  N     N_R   0.602975 0.432333 0.066492 0.000000
C749  C     C_R   0.644031 0.500529 0.067270 0.000000
C750  C     C_R   0.643948 0.567414 0.073858 0.000000
C751  C     C_R   0.690974 0.630205 0.071292 0.000000
C752  C     C_R   0.732004 0.625070 0.061214 0.000000
C753  C     C_R   0.736489 0.556426 0.058561 0.000000
C754  C     C_R   0.692297 0.495812 0.061786 0.000000
N116  N     N_R   0.689064 0.426331 0.057866 0.000000
H457  H     H_    0.523708 0.149308 0.047297 0.000000
H458  H     H_    0.562513 0.162773 0.019582 0.000000
H459  H     H_    0.637946 0.278539 0.011430 0.000000
H460  H     H_    0.669396 0.381996 0.029863 0.000000
H461  H     H_    0.610186 0.570749 0.080949 0.000000
H462  H     H_    0.696501 0.685281 0.076173 0.000000
H463  H     H_    0.764123 0.673726 0.056598 0.000000
H464  H     H_    0.772112 0.550487 0.052992 0.000000
Br59  Br    Br    0.562825 0.517001 0.042430 0.000000
C755  C     C_R   0.514305 0.569301 0.040425 0.000000
C756  C     C_R   0.500430 0.575921 0.025100 0.000000
C757  C     C_R   0.470575 0.620616 0.021594 0.000000
C758  C     C_R   0.453914 0.658345 0.033568 0.000000
C759  C     C_R   0.467352 0.651515 0.048899 0.000000
C760  C     C_R   0.497494 0.606870 0.052788 0.000000
C761  C     C_R   0.512464 0.608980 0.069651 0.000000
N117  N     N_R   0.515404 0.545093 0.078494 0.000000
C762  C     C_R   0.510666 0.570052 0.093166 0.000000
C763  C     C_R   0.506712 0.530070 0.106706 0.000000
C764  C     C_R   0.514717 0.569793 0.120281 0.000000
C765  C     C_R   0.507392 0.639215 0.121007 0.000000
C766  C     C_R   0.498135 0.672723 0.107485 0.000000
C767  C     C_R   0.507297 0.641516 0.093490 0.000000
N118  N     N_R   0.512156 0.672414 0.078951 0.000000
H465  H     H_    0.514740 0.547354 0.015649 0.000000
H466  H     H_    0.460493 0.626262 0.009523 0.000000
H467  H     H_    0.430225 0.693502 0.030947 0.000000
H468  H     H_    0.454230 0.682694 0.057905 0.000000
H469  H     H_    0.494997 0.469894 0.106928 0.000000
H470  H     H_    0.527314 0.546112 0.130090 0.000000
H471  H     H_    0.513233 0.669055 0.131884 0.000000
H472  H     H_    0.488964 0.724487 0.107942 0.000000
Br60  Br    Br    0.654638 0.399990 0.094675 0.000000
C768  C     C_R   0.663441 0.491223 0.105238 0.000000
C769  C     C_R   0.712688 0.546242 0.106525 0.000000
C770  C     C_R   0.720830 0.598415 0.118477 0.000000
C771  C     C_R   0.680128 0.588596 0.129926 0.000000
C772  C     C_R   0.630483 0.532778 0.128365 0.000000
C773  C     C_R   0.621413 0.488592 0.115067 0.000000
C774  C     C_R   0.578431 0.416368 0.115605 0.000000
N119  N     N_R   0.539189 0.388461 0.104336 0.000000
C775  C     C_R   0.508353 0.321264 0.111938 0.000000
C776  C     C_R   0.462418 0.265650 0.107534 0.000000
C777  C     C_R   0.438661 0.202509 0.117632 0.000000
C778  C     C_R   0.462675 0.190115 0.130911 0.000000
C779  C     C_R   0.511105 0.242810 0.134507 0.000000
C780  C     C_R   0.530505 0.309226 0.125582 0.000000
N120  N     N_R   0.576187 0.366314 0.127949 0.000000
H473  H     H_    0.745073 0.542556 0.099049 0.000000
H474  H     H_    0.760223 0.640855 0.120027 0.000000
H475  H     H_    0.687635 0.623031 0.140382 0.000000
H476  H     H_    0.599960 0.521244 0.137953 0.000000
H477  H     H_    0.445133 0.269051 0.096660 0.000000
H478  H     H_    0.401649 0.160046 0.114894 0.000000
H479  H     H_    0.443709 0.139379 0.138331 0.000000
H480  H     H_    0.533120 0.233540 0.144183 0.000000
Br61  Br    Br    0.015640 0.436240 0.116727 0.000000
C781  C     C_R   0.994288 0.402034 0.137963 0.000000
C782  C     C_R   0.945746 0.400717 0.145159 0.000000
C783  C     C_R   0.930757 0.372502 0.160436 0.000000
C784  C     C_R   0.960840 0.336808 0.167728 0.000000
C785  C     C_R   0.007399 0.334415 0.160111 0.000000
C786  C     C_R   0.026519 0.371838 0.145700 0.000000
C787  C     C_R   0.083984 0.395264 0.140492 0.000000
N121  N     N_R   0.113410 0.344940 0.140753 0.000000
C788  C     C_R   0.164045 0.395387 0.140848 0.000000
C789  C     C_R   0.209757 0.378347 0.142859 0.000000
C790  C     C_R   0.257780 0.439132 0.143579 0.000000
C791  C     C_R   0.259700 0.513760 0.140886 0.000000
C792  C     C_R   0.212635 0.529370 0.139438 0.000000
C793  C     C_R   0.165377 0.469380 0.139897 0.000000
N122  N     N_R   0.115917 0.473932 0.139051 0.000000
H481  H     H_    0.919612 0.422746 0.139024 0.000000
H482  H     H_    0.894246 0.374425 0.166444 0.000000
H483  H     H_    0.947988 0.310597 0.179413 0.000000
H484  H     H_    0.029384 0.306118 0.166082 0.000000
H485  H     H_    0.208358 0.319926 0.144281 0.000000
H486  H     H_    0.294258 0.428559 0.146045 0.000000
H487  H     H_    0.298198 0.560120 0.140416 0.000000
H488  H     H_    0.211747 0.586060 0.137612 0.000000
Br62  Br    Br    0.135045 0.022057 0.165246 0.000000
C794  C     C_R   0.202937 0.094807 0.156924 0.000000
C795  C     C_R   0.235792 0.079210 0.145278 0.000000
C796  C     C_R   0.286975 0.130961 0.141748 0.000000
C797  C     C_R   0.303715 0.201638 0.148650 0.000000
C798  C     C_R   0.268368 0.220674 0.158812 0.000000
C799  C     C_R   0.218982 0.165864 0.163078 0.000000
C800  C     C_R   0.180431 0.185087 0.172865 0.000000
N123  N     N_R   0.145881 0.217411 0.165922 0.000000
C801  C     C_R   0.130813 0.248169 0.179152 0.000000
C802  C     C_R   0.111126 0.307239 0.179890 0.000000
C803  C     C_R   0.092985 0.325851 0.194409 0.000000
C804  C     C_R   0.099230 0.289640 0.208063 0.000000
C805  C     C_R   0.129663 0.242848 0.207393 0.000000
C806  C     C_R   0.147356 0.224833 0.192815 0.000000
N124  N     N_R   0.182258 0.187407 0.189553 0.000000
H489  H     H_    0.222269 0.025787 0.139244 0.000000
H490  H     H_    0.314720 0.115357 0.133895 0.000000
H491  H     H_    0.343958 0.241760 0.145935 0.000000
H492  H     H_    0.279743 0.277154 0.163813 0.000000
H493  H     H_    0.111832 0.340720 0.169576 0.000000
H494  H     H_    0.074384 0.369134 0.195128 0.000000
H495  H     H_    0.084056 0.302119 0.219456 0.000000
H496  H     H_    0.140377 0.224529 0.218243 0.000000
Br63  Br    Br    0.043852 0.186723 0.103523 0.000000
C807  C     C_R   0.047341 0.088376 0.105164 0.000000
C808  C     C_R   0.066372 0.050625 0.093614 0.000000
C809  C     C_R   0.054524 0.972839 0.095411 0.000000
C810  C     C_R   0.023163 0.933785 0.108432 0.000000
C811  C     C_R   0.005518 0.972570 0.119842 0.000000
C812  C     C_R   0.018003 0.049718 0.117941 0.000000
C813  C     C_R   0.993675 0.090248 0.128390 0.000000
N125  N     N_R   0.025578 0.142864 0.139133 0.000000
C814  C     C_R   0.988053 0.132594 0.151200 0.000000
C815  C     C_R   0.998917 0.153428 0.166468 0.000000
C816  C     C_R   0.958704 0.126505 0.178355 0.000000
C817  C     C_R   0.908144 0.077700 0.174771 0.000000
C818  C     C_R   0.897038 0.056981 0.159247 0.000000
C819  C     C_R   0.937459 0.083684 0.147434 0.000000
N126  N     N_R   0.937788 0.057249 0.132416 0.000000
H497  H     H_    0.088219 0.079771 0.083005 0.000000
H498  H     H_    0.070098 0.942514 0.086707 0.000000
H499  H     H_    0.012191 0.872988 0.109944 0.000000
H500  H     H_    0.983077 0.943042 0.130335 0.000000
H501  H     H_    0.038935 0.185782 0.169206 0.000000
H502  H     H_    0.967303 0.141203 0.190543 0.000000
H503  H     H_    0.877501 0.054189 0.184270 0.000000
H504  H     H_    0.857933 0.017139 0.156777 0.000000
Br64  Br    Br    0.275466 0.335625 0.072901 0.000000
C820  C     C_R   0.212305 0.339508 0.082897 0.000000
C821  C     C_R   0.183537 0.366862 0.073255 0.000000
C822  C     C_R   0.133441 0.366397 0.078150 0.000000
C823  C     C_R   0.115460 0.347859 0.093466 0.000000
C824  C     C_R   0.146634 0.326678 0.103583 0.000000
C825  C     C_R   0.190670 0.310306 0.097781 0.000000
C826  C     C_R   0.197397 0.242767 0.105054 0.000000
N127  N     N_R   0.216299 0.191140 0.095931 0.000000
C827  C     C_R   0.194856 0.128505 0.105669 0.000000
C828  C     C_R   0.191874 0.056559 0.102305 0.000000
C829  C     C_R   0.156471 0.997011 0.111140 0.000000
C830  C     C_R   0.129614 0.008744 0.124821 0.000000
C831  C     C_R   0.134358 0.082361 0.128738 0.000000
C832  C     C_R   0.166852 0.140751 0.119020 0.000000
N128  N     N_R   0.167432 0.212364 0.119716 0.000000
H505  H     H_    0.198572 0.379663 0.061125 0.000000
H506  H     H_    0.106691 0.375180 0.069860 0.000000
H507  H     H_    0.076127 0.348176 0.097604 0.000000
H508  H     H_    0.128571 0.306754 0.115040 0.000000
H509  H     H_    0.213485 0.045060 0.092595 0.000000
H510  H     H_    0.149257 0.941048 0.106584 0.000000
H511  H     H_    0.102552 0.960557 0.131843 0.000000
H512  H     H_    0.110334 0.093604 0.138504 0.000000
Br65  Br    Br    0.321721 0.041347 0.104972 0.000000
C833  C     C_R   0.365654 0.046356 0.086621 0.000000
C834  C     C_R   0.420724 0.073832 0.087322 0.000000
C835  C     C_R   0.452577 0.075202 0.074008 0.000000
C836  C     C_R   0.429448 0.049342 0.060016 0.000000
C837  C     C_R   0.374896 0.025226 0.059252 0.000000
C838  C     C_R   0.342972 0.021598 0.072569 0.000000
C839  C     C_R   0.285770 0.996069 0.070816 0.000000
N129  N     N_R   0.256308 0.918383 0.067482 0.000000
C840  C     C_R   0.209770 0.926345 0.063314 0.000000
C841  C     C_R   0.163616 0.869803 0.059100 0.000000
C842  C     C_R   0.118876 0.889854 0.056445 0.000000
C843  C     C_R   0.121466 0.965340 0.057432 0.000000
C844  C     C_R   0.167817 0.021321 0.061671 0.000000
C845  C     C_R   0.211646 0.001445 0.064210 0.000000
N130  N     N_R   0.258998 0.049435 0.069017 0.000000
H513  H     H_    0.439386 0.092034 0.098306 0.000000
H514  H     H_    0.495668 0.097187 0.074707 0.000000
H515  H     H_    0.452994 0.049293 0.049367 0.000000
H516  H     H_    0.356916 0.012704 0.047960 0.000000
H517  H     H_    0.162177 0.811964 0.057587 0.000000
H518  H     H_    0.080896 0.846315 0.054023 0.000000
H519  H     H_    0.086744 0.980807 0.055418 0.000000
H520  H     H_    0.168559 0.078123 0.063851 0.000000
Br66  Br    Br    0.347524 0.340237 0.035199 0.000000
C846  C     C_R   0.331307 0.248287 0.023664 0.000000
C847  C     C_R   0.371496 0.237295 0.013949 0.000000
C848  C     C_R   0.361136 0.172610 0.005012 0.000000
C849  C     C_R   0.309764 0.119884 0.005452 0.000000
C850  C     C_R   0.269577 0.130349 0.015298 0.000000
C851  C     C_R   0.280013 0.194390 0.024319 0.000000
C852  C     C_R   0.234680 0.208272 0.032568 0.000000
N131  N     N_R   0.225159 0.201034 0.049322 0.000000
C853  C     C_R   0.176321 0.210434 0.050369 0.000000
C854  C     C_R   0.142178 0.203555 0.063438 0.000000
C855  C     C_R   0.096240 0.221901 0.061674 0.000000
C856  C     C_R   0.085142 0.246998 0.047323 0.000000
C857  C     C_R   0.116142 0.244384 0.034064 0.000000
C858  C     C_R   0.160290 0.225009 0.035869 0.000000
N132  N     N_R   0.194278 0.222357 0.023935 0.000000
H521  H     H_    0.411285 0.281068 0.013026 0.000000
H522  H     H_    0.392836 0.164598 0.997340 0.000000
H523  H     H_    0.301165 0.070543 0.997989 0.000000
H524  H     H_    0.229293 0.088276 0.016099 0.000000
H525  H     H_    0.152210 0.189323 0.074869 0.000000
H526  H     H_    0.071622 0.225452 0.071896 0.000000
H527  H     H_    0.052286 0.268474 0.046471 0.000000
H528  H     H_    0.108460 0.261072 0.022634 0.000000
Br67  Br    Br    0.234087 0.114177 0.286271 0.000000
C859  C     C_R   0.293601 0.111352 0.273708 0.000000
C860  C     C_R   0.285108 0.040118 0.268249 0.000000
C861  C     C_R   0.326215 0.018989 0.261800 0.000000
C862  C     C_R   0.376970 0.072004 0.260356 0.000000
C863  C     C_R   0.385902 0.144610 0.265593 0.000000
C864  C     C_R   0.345026 0.165509 0.272651 0.000000
C865  C     C_R   0.361417 0.238801 0.280764 0.000000
N133  N     N_R   0.325839 0.276148 0.286362 0.000000
C866  C     C_R   0.359571 0.331451 0.294884 0.000000
C867  C     C_R   0.344185 0.369973 0.306694 0.000000
C868  C     C_R   0.382715 0.407962 0.317125 0.000000
C869  C     C_R   0.436301 0.418825 0.314067 0.000000
C870  C     C_R   0.450516 0.378062 0.302422 0.000000
C871  C     C_R   0.411344 0.330704 0.293702 0.000000
N134  N     N_R   0.415582 0.273706 0.284641 0.000000
H529  H     H_    0.245388 0.000195 0.270856 0.000000
H530  H     H_    0.320095 0.959920 0.259197 0.000000
H531  H     H_    0.410771 0.054710 0.256785 0.000000
H532  H     H_    0.426469 0.183929 0.265155 0.000000
H533  H     H_    0.301877 0.360593 0.309098 0.000000
H534  H     H_    0.371601 0.429508 0.328030 0.000000
H535  H     H_    0.466676 0.455264 0.321372 0.000000
H536  H     H_    0.491427 0.384914 0.300339 0.000000
Br68  Br    Br    0.240888 0.448886 0.325027 0.000000
C872  C     C_R   0.304028 0.507435 0.313589 0.000000
C873  C     C_R   0.349753 0.542352 0.321487 0.000000
C874  C     C_R   0.399271 0.569860 0.313211 0.000000
C875  C     C_R   0.401781 0.571243 0.297027 0.000000
C876  C     C_R   0.355299 0.540689 0.289199 0.000000
C877  C     C_R   0.305659 0.503398 0.297435 0.000000
C878  C     C_R   0.253121 0.468279 0.290043 0.000000
N135  N     N_R   0.229552 0.389707 0.285755 0.000000
C879  C     C_R   0.183826 0.392738 0.279408 0.000000
C880  C     C_R   0.145631 0.336346 0.271622 0.000000
C881  C     C_R   0.098409 0.347638 0.268110 0.000000
C882  C     C_R   0.091357 0.416594 0.271479 0.000000
C883  C     C_R   0.133505 0.477446 0.276844 0.000000
C884  C     C_R   0.179098 0.463726 0.280686 0.000000
N136  N     N_R   0.222839 0.514707 0.286540 0.000000
H537  H     H_    0.347721 0.540751 0.334300 0.000000
H538  H     H_    0.435968 0.589900 0.319436 0.000000
H539  H     H_    0.440270 0.595857 0.290389 0.000000
H540  H     H_    0.361151 0.545798 0.276642 0.000000
H541  H     H_    0.149689 0.281927 0.269672 0.000000
H542  H     H_    0.066038 0.301377 0.263228 0.000000
H543  H     H_    0.052952 0.422843 0.269725 0.000000
H544  H     H_    0.129490 0.532716 0.278865 0.000000
Br69  Br    Br    0.376344 0.233469 0.237753 0.000000
C885  C     C_R   0.346339 0.296054 0.247967 0.000000
C886  C     C_R   0.384269 0.357552 0.254383 0.000000
C887  C     C_R   0.370127 0.412462 0.261734 0.000000
C888  C     C_R   0.317559 0.405633 0.262136 0.000000
C889  C     C_R   0.279278 0.344858 0.256001 0.000000
C890  C     C_R   0.292319 0.288418 0.248483 0.000000
C891  C     C_R   0.244744 0.219357 0.247897 0.000000
N137  N     N_R   0.217802 0.180509 0.234345 0.000000
C892  C     C_R   0.166991 0.147819 0.241104 0.000000
C893  C     C_R   0.121879 0.103070 0.233697 0.000000
C894  C     C_R   0.073149 0.074712 0.242565 0.000000
C895  C     C_R   0.070956 0.086145 0.258774 0.000000
C896  C     C_R   0.116958 0.128693 0.266199 0.000000
C897  C     C_R   0.164365 0.161889 0.257145 0.000000
N138  N     N_R   0.212557 0.209375 0.261972 0.000000
H545  H     H_    0.425159 0.361001 0.254055 0.000000
H546  H     H_    0.399858 0.460650 0.266819 0.000000
H547  H     H_    0.305758 0.449851 0.266372 0.000000
H548  H     H_    0.238756 0.345415 0.255883 0.000000
H549  H     H_    0.124218 0.090978 0.221208 0.000000
H550  H     H_    0.036993 0.040593 0.236952 0.000000
H551  H     H_    0.033114 0.060707 0.265708 0.000000
H552  H     H_    0.115395 0.134149 0.278762 0.000000
Br70  Br    Br    0.325197 0.195907 0.319426 0.000000
C898  C     C_R   0.291861 0.250105 0.332524 0.000000
C899  C     C_R   0.321915 0.302064 0.342771 0.000000
C900  C     C_R   0.297591 0.338628 0.353003 0.000000
C901  C     C_R   0.244945 0.331814 0.351664 0.000000
C902  C     C_R   0.215560 0.281843 0.340985 0.000000
C903  C     C_R   0.237968 0.237043 0.332391 0.000000
C904  C     C_R   0.202545 0.180578 0.322789 0.000000
N139  N     N_R   0.194316 0.206183 0.307761 0.000000
C905  C     C_R   0.140232 0.178253 0.308161 0.000000
C906  C     C_R   0.109796 0.216474 0.302069 0.000000
C907  C     C_R   0.054953 0.190880 0.305542 0.000000
C908  C     C_R   0.031795 0.128752 0.315736 0.000000
C909  C     C_R   0.064288 0.096366 0.323317 0.000000
C910  C     C_R   0.118674 0.127656 0.320580 0.000000
N140  N     N_R   0.156144 0.127859 0.330836 0.000000
H553  H     H_    0.364496 0.311505 0.343240 0.000000
H554  H     H_    0.320007 0.371991 0.362021 0.000000
H555  H     H_    0.227387 0.367407 0.358434 0.000000
H556  H     H_    0.175153 0.279046 0.338886 0.000000
H557  H     H_    0.129585 0.271505 0.296917 0.000000
H558  H     H_    0.030551 0.221243 0.300864 0.000000
H559  H     H_    0.988934 0.111056 0.318684 0.000000
H560  H     H_    0.048724 0.049027 0.331497 0.000000
Br71  Br    Br    0.507574 0.491619 0.275458 0.000000
C911  C     C_R   0.567854 0.496083 0.262021 0.000000
C912  C     C_R   0.614831 0.555929 0.264174 0.000000
C913  C     C_R   0.660508 0.568420 0.254363 0.000000
C914  C     C_R   0.661226 0.513108 0.243786 0.000000
C915  C     C_R   0.615739 0.448508 0.243043 0.000000
C916  C     C_R   0.566753 0.443860 0.250418 0.000000
C917  C     C_R   0.518986 0.376617 0.247136 0.000000
N141  N     N_R   0.512172 0.307944 0.255492 0.000000
C918  C     C_R   0.504665 0.258929 0.243617 0.000000
C919  C     C_R   0.504844 0.186305 0.244224 0.000000
C920  C     C_R   0.510965 0.153403 0.230303 0.000000
C921  C     C_R   0.507593 0.187163 0.216045 0.000000
C922  C     C_R   0.497642 0.254389 0.215912 0.000000
C923  C     C_R   0.500363 0.292005 0.229700 0.000000
N142  N     N_R   0.504007 0.365266 0.231236 0.000000
H561  H     H_    0.613754 0.594612 0.273281 0.000000
H562  H     H_    0.696629 0.617608 0.255836 0.000000
H563  H     H_    0.698507 0.516800 0.237272 0.000000
H564  H     H_    0.619423 0.398178 0.237661 0.000000
H565  H     H_    0.503684 0.156140 0.254960 0.000000
H566  H     H_    0.514494 0.098481 0.231001 0.000000
H567  H     H_    0.511194 0.160538 0.205025 0.000000
H568  H     H_    0.492401 0.279137 0.205147 0.000000
Br72  Br    Br    0.327473 0.103488 0.216091 0.000000
C924  C     C_R   0.381968 0.143673 0.200000 0.000000
C925  C     C_R   0.405483 0.098012 0.192448 0.000000
C926  C     C_R   0.440371 0.124679 0.179452 0.000000
C927  C     C_R   0.456344 0.200345 0.175208 0.000000
C928  C     C_R   0.430374 0.244844 0.182332 0.000000
C929  C     C_R   0.392385 0.215396 0.194214 0.000000
C930  C     C_R   0.367559 0.264692 0.201301 0.000000
N143  N     N_R   0.311741 0.243917 0.204468 0.000000
C931  C     C_R   0.309924 0.308926 0.210714 0.000000
C932  C     C_R   0.264339 0.323439 0.214991 0.000000
C933  C     C_R   0.268829 0.388546 0.223170 0.000000
C934  C     C_R   0.319291 0.435438 0.227463 0.000000
C935  C     C_R   0.365803 0.421251 0.222442 0.000000
C936  C     C_R   0.360066 0.360187 0.212981 0.000000
N144  N     N_R   0.399133 0.336581 0.206536 0.000000
H569  H     H_    0.388989 0.038352 0.195062 0.000000
H570  H     H_    0.452658 0.085581 0.172140 0.000000
H571  H     H_    0.487544 0.223300 0.166131 0.000000
H572  H     H_    0.438904 0.303618 0.179247 0.000000
H573  H     H_    0.226459 0.282956 0.212649 0.000000
H574  H     H_    0.232758 0.398326 0.227585 0.000000
H575  H     H_    0.321646 0.481925 0.235256 0.000000
H576  H     H_    0.405146 0.455930 0.225937 0.000000
Br73  Br    Br    0.576119 0.560804 0.172638 0.000000
C937  C     C_R   0.517660 0.490468 0.162340 0.000000
C938  C     C_R   0.480243 0.515586 0.155728 0.000000
C939  C     C_R   0.439612 0.467680 0.147292 0.000000
C940  C     C_R   0.437052 0.393808 0.145134 0.000000
C941  C     C_R   0.471452 0.366850 0.152813 0.000000
C942  C     C_R   0.510971 0.413982 0.161972 0.000000
C943  C     C_R   0.542513 0.383847 0.172281 0.000000
N145  N     N_R   0.585580 0.362779 0.166345 0.000000
C944  C     C_R   0.610038 0.357194 0.179387 0.000000
C945  C     C_R   0.661128 0.354315 0.179557 0.000000
C946  C     C_R   0.687565 0.371714 0.193412 0.000000
C947  C     C_R   0.661041 0.386657 0.206847 0.000000
C948  C     C_R   0.608961 0.387503 0.206218 0.000000
C949  C     C_R   0.584324 0.374456 0.192365 0.000000
N146  N     N_R   0.538920 0.388325 0.188845 0.000000
H577  H     H_    0.484306 0.574123 0.156193 0.000000
H578  H     H_    0.411447 0.489372 0.141992 0.000000
H579  H     H_    0.406500 0.355908 0.138128 0.000000
H580  H     H_    0.463517 0.306778 0.152530 0.000000
H581  H     H_    0.681583 0.344949 0.168817 0.000000
H582  H     H_    0.729039 0.374487 0.193752 0.000000
H583  H     H_    0.682210 0.400412 0.217631 0.000000
H584  H     H_    0.588713 0.403463 0.215808 0.000000
Br74  Br    Br    0.362249 0.607971 0.215917 0.000000
C950  C     C_R   0.362714 0.538959 0.199939 0.000000
C951  C     C_R   0.314944 0.490391 0.194254 0.000000
C952  C     C_R   0.315284 0.436722 0.183161 0.000000
C953  C     C_R   0.363144 0.426774 0.178989 0.000000
C954  C     C_R   0.409832 0.471500 0.185733 0.000000
C955  C     C_R   0.410897 0.531408 0.195452 0.000000
C956  C     C_R   0.460018 0.570415 0.203884 0.000000
N147  N     N_R   0.484980 0.651328 0.205467 0.000000
C957  C     C_R   0.535284 0.653354 0.208760 0.000000
C958  C     C_R   0.581900 0.714844 0.206945 0.000000
C959  C     C_R   0.630962 0.706758 0.209424 0.000000
C960  C     C_R   0.632924 0.635327 0.213170 0.000000
C961  C     C_R   0.586202 0.571699 0.213313 0.000000
C962  C     C_R   0.538458 0.581915 0.210604 0.000000
N148  N     N_R   0.491579 0.526839 0.207887 0.000000
H585  H     H_    0.276933 0.494838 0.198384 0.000000
H586  H     H_    0.277882 0.399569 0.178622 0.000000
H587  H     H_    0.363255 0.379578 0.171575 0.000000
H588  H     H_    0.444621 0.454638 0.184444 0.000000
H589  H     H_    0.580293 0.764385 0.201414 0.000000
H590  H     H_    0.668024 0.755785 0.207853 0.000000
H591  H     H_    0.671274 0.628760 0.215021 0.000000
H592  H     H_    0.587346 0.515658 0.215170 0.000000
Br75  Br    Br    0.195709 0.047458 0.985753 0.000000
C963  C     C_R   0.154156 0.069712 0.970446 0.000000
C964  C     C_R   0.105516 0.017739 0.967392 0.000000
C965  C     C_R   0.075554 0.034911 0.956328 0.000000
C966  C     C_R   0.092920 0.105691 0.948882 0.000000
C967  C     C_R   0.140475 0.159295 0.952901 0.000000
C968  C     C_R   0.171454 0.139533 0.963006 0.000000
C969  C     C_R   0.218998 0.196054 0.967932 0.000000
N149  N     N_R   0.218792 0.230961 0.982406 0.000000
C970  C     C_R   0.271876 0.263075 0.984280 0.000000
C971  C     C_R   0.296152 0.318506 0.994782 0.000000
C972  C     C_R   0.352081 0.350323 0.993531 0.000000
C973  C     C_R   0.381846 0.318202 0.983580 0.000000
C974  C     C_R   0.356037 0.261797 0.973150 0.000000
C975  C     C_R   0.301270 0.242025 0.972536 0.000000
N150  N     N_R   0.269617 0.205015 0.960900 0.000000
H593  H     H_    0.091626 0.964027 0.973657 0.000000
H594  H     H_    0.037983 0.993143 0.953958 0.000000
H595  H     H_    0.067938 0.120139 0.940728 0.000000
H596  H     H_    0.153728 0.218115 0.949105 0.000000
H597  H     H_    0.272392 0.338295 0.003322 0.000000
H598  H     H_    0.373050 0.396419 0.001147 0.000000
H599  H     H_    0.425490 0.339540 0.983604 0.000000
H600  H     H_    0.378606 0.240412 0.964714 0.000000
Br76  Br    Br    0.036903 0.289022 0.005079 0.000000
C976  C     C_R   0.018792 0.260801 0.984034 0.000000
C977  C     C_R   0.012968 0.312932 0.973496 0.000000
C978  C     C_R   0.998858 0.293393 0.958267 0.000000
C979  C     C_R   0.992823 0.220973 0.953384 0.000000
C980  C     C_R   0.000189 0.169610 0.963808 0.000000
C981  C     C_R   0.014206 0.189767 0.978893 0.000000
C982  C     C_R   0.024810 0.134615 0.988877 0.000000
N151  N     N_R   0.075558 0.149202 0.995866 0.000000
C983  C     C_R   0.066448 0.078323 0.001818 0.000000
C984  C     C_R   0.101347 0.057485 0.010581 0.000000
C985  C     C_R   0.084890 0.983307 0.016466 0.000000
C986  C     C_R   0.033109 0.933690 0.014215 0.000000
C987  C     C_R   0.998044 0.954525 0.005262 0.000000
C988  C     C_R   0.015518 0.026826 0.998784 0.000000
N152  N     N_R   0.986007 0.059217 0.990601 0.000000
H601  H     H_    0.023227 0.371310 0.976938 0.000000
H602  H     H_    0.995694 0.336067 0.950017 0.000000
H603  H     H_    0.984180 0.205225 0.941352 0.000000
H604  H     H_    0.998255 0.114386 0.960014 0.000000
H605  H     H_    0.140648 0.097526 0.012746 0.000000
H606  H     H_    0.111434 0.964999 0.023463 0.000000
H607  H     H_    0.018581 0.879278 0.020173 0.000000
H608  H     H_    0.956952 0.917028 0.004689 0.000000
Br77  Br    Br    0.272819 0.497271 0.980712 0.000000
C989  C     C_R   0.276056 0.490102 0.003184 0.000000
C990  C     C_R   0.325651 0.511779 0.009724 0.000000
C991  C     C_R   0.328312 0.501752 0.025752 0.000000
C992  C     C_R   0.282316 0.460111 0.034694 0.000000
C993  C     C_R   0.233852 0.431309 0.027646 0.000000
C994  C     C_R   0.229389 0.455852 0.012656 0.000000
C995  C     C_R   0.177459 0.430858 0.005434 0.000000
N153  N     N_R   0.158891 0.485712 0.998229 0.000000
C996  C     C_R   0.139797 0.447469 0.985060 0.000000
C997  C     C_R   0.124067 0.476070 0.972120 0.000000
C998  C     C_R   0.114763 0.431252 0.958747 0.000000
C999  C     C_R   0.122021 0.360667 0.958570 0.000000
C1000 C     C_R   0.136411 0.332043 0.971866 0.000000
C1001 C     C_R   0.143801 0.375666 0.984955 0.000000
N154  N     N_R   0.161938 0.358735 0.998370 0.000000
H609  H     H_    0.362412 0.536214 0.002276 0.000000
H610  H     H_    0.366757 0.520121 0.031084 0.000000
H611  H     H_    0.284970 0.447174 0.047004 0.000000
H612  H     H_    0.198722 0.392091 0.034015 0.000000
H613  H     H_    0.118414 0.530617 0.972628 0.000000
H614  H     H_    0.099047 0.448454 0.948495 0.000000
H615  H     H_    0.111267 0.324468 0.948471 0.000000
H616  H     H_    0.139844 0.276160 0.972255 0.000000
Br78  Br    Br    0.752788 0.840573 0.105772 0.000000
C1002 C     C_R   0.727512 0.923595 0.103043 0.000000
C1003 C     C_R   0.695685 0.941280 0.114080 0.000000
C1004 C     C_R   0.687574 0.009963 0.113442 0.000000
C1005 C     C_R   0.699867 0.053359 0.099923 0.000000
C1006 C     C_R   0.728535 0.032710 0.088290 0.000000
C1007 C     C_R   0.747963 0.974890 0.091241 0.000000
C1008 C     C_R   0.800916 0.988897 0.085595 0.000000
N155  N     N_R   0.844063 0.999371 0.095637 0.000000
C1009 C     C_R   0.884508 0.041651 0.085514 0.000000
C1010 C     C_R   0.937029 0.067435 0.088193 0.000000
C1011 C     C_R   0.972348 0.104480 0.075703 0.000000
C1012 C     C_R   0.954160 0.127680 0.062392 0.000000
C1013 C     C_R   0.900397 0.100295 0.059782 0.000000
C1014 C     C_R   0.867255 0.053806 0.071095 0.000000
N156  N     N_R   0.814066 0.023695 0.070773 0.000000
H617  H     H_    0.683156 0.905435 0.124306 0.000000
H618  H     H_    0.673227 0.030790 0.123799 0.000000
H619  H     H_    0.692901 0.107073 0.099068 0.000000
H620  H     H_    0.744875 0.072696 0.078647 0.000000
H621  H     H_    0.948371 0.048537 0.098855 0.000000
H622  H     H_    0.014093 0.112774 0.075876 0.000000
H623  H     H_    0.982028 0.165195 0.053765 0.000000
H624  H     H_    0.883967 0.116538 0.049573 0.000000
Br79  Br    Br    0.788767 0.090817 0.170409 0.000000
C1015 C     C_R   0.814370 0.130196 0.149664 0.000000
C1016 C     C_R   0.861602 0.192379 0.148347 0.000000
C1017 C     C_R   0.888867 0.215265 0.133830 0.000000
C1018 C     C_R   0.867594 0.177808 0.120512 0.000000
C1019 C     C_R   0.820106 0.115906 0.121839 0.000000
C1020 C     C_R   0.793107 0.090591 0.136355 0.000000
C1021 C     C_R   0.762427 0.008799 0.138199 0.000000
N157  N     N_R   0.790994 0.959381 0.135388 0.000000
C1022 C     C_R   0.761543 0.898147 0.144646 0.000000
C1023 C     C_R   0.766217 0.827001 0.145446 0.000000
C1024 C     C_R   0.735415 0.774743 0.156793 0.000000
C1025 C     C_R   0.700847 0.793925 0.167281 0.000000
C1026 C     C_R   0.691538 0.861564 0.165002 0.000000
C1027 C     C_R   0.718844 0.910630 0.152536 0.000000
N158  N     N_R   0.712294 0.975673 0.146948 0.000000
H625  H     H_    0.878970 0.218181 0.159059 0.000000
H626  H     H_    0.927996 0.259632 0.132857 0.000000
H627  H     H_    0.889932 0.194236 0.109191 0.000000
H628  H     H_    0.805838 0.084069 0.111503 0.000000
H629  H     H_    0.788384 0.807801 0.136637 0.000000
H630  H     H_    0.737743 0.718394 0.157239 0.000000
H631  H     H_    0.677471 0.753068 0.176404 0.000000
H632  H     H_    0.661240 0.870374 0.172522 0.000000
Br80  Br    Br    0.935362 0.685406 0.097803 0.000000
C1028 C     C_R   0.941498 0.780788 0.091564 0.000000
C1029 C     C_R   0.976696 0.811574 0.078762 0.000000
C1030 C     C_R   0.977609 0.877821 0.071861 0.000000
C1031 C     C_R   0.941707 0.910791 0.077522 0.000000
C1032 C     C_R   0.908504 0.881162 0.090898 0.000000
C1033 C     C_R   0.907699 0.815559 0.098212 0.000000
C1034 C     C_R   0.876780 0.793018 0.113689 0.000000
N159  N     N_R   0.878934 0.729651 0.122709 0.000000
C1035 C     C_R   0.893457 0.764730 0.136578 0.000000
C1036 C     C_R   0.924134 0.747465 0.147607 0.000000
C1037 C     C_R   0.936758 0.791803 0.160927 0.000000
C1038 C     C_R   0.920947 0.855058 0.162585 0.000000
C1039 C     C_R   0.897139 0.877291 0.150240 0.000000
C1040 C     C_R   0.887202 0.834341 0.136976 0.000000
N160  N     N_R   0.874409 0.855053 0.122829 0.000000
H633  H     H_    0.000423 0.780710 0.073275 0.000000
H634  H     H_    0.004093 0.900592 0.061558 0.000000
H635  H     H_    0.937846 0.957106 0.070810 0.000000
H636  H     H_    0.879487 0.904348 0.095136 0.000000
H637  H     H_    0.938649 0.701358 0.145918 0.000000
H638  H     H_    0.959077 0.777153 0.170005 0.000000
H639  H     H_    0.930131 0.889522 0.173058 0.000000
H640  H     H_    0.887511 0.927540 0.150601 0.000000
Br81  Br    Br    0.922350 0.161711 0.017443 0.000000
C1041 C     C_R   0.932896 0.072557 0.025564 0.000000
C1042 C     C_R   0.981883 0.076428 0.030825 0.000000
C1043 C     C_R   0.986160 0.013805 0.038571 0.000000
C1044 C     C_R   0.942471 0.946078 0.039757 0.000000
C1045 C     C_R   0.892985 0.944205 0.035456 0.000000
C1046 C     C_R   0.888708 0.007020 0.028320 0.000000
C1047 C     C_R   0.840177 0.002803 0.021201 0.000000
N161  N     N_R   0.799640 0.023310 0.029434 0.000000
C1048 C     C_R   0.778832 0.047622 0.017387 0.000000
C1049 C     C_R   0.740128 0.080172 0.018982 0.000000
C1050 C     C_R   0.729920 0.114118 0.005780 0.000000
C1051 C     C_R   0.766870 0.130604 0.992879 0.000000
C1052 C     C_R   0.805748 0.096116 0.991333 0.000000
C1053 C     C_R   0.806175 0.045896 0.003149 0.000000
N162  N     N_R   0.843287 0.011738 0.004740 0.000000
H641  H     H_    0.016289 0.128801 0.029212 0.000000
H642  H     H_    0.024561 0.016612 0.042755 0.000000
H643  H     H_    0.946701 0.893611 0.043660 0.000000
H644  H     H_    0.857791 0.893448 0.037098 0.000000
H645  H     H_    0.718275 0.079278 0.030160 0.000000
H646  H     H_    0.696578 0.135161 0.006219 0.000000
H647  H     H_    0.764718 0.171248 0.984140 0.000000
H648  H     H_    0.835998 0.111014 0.981585 0.000000
Br82  Br    Br    0.838093 0.197864 0.079619 0.000000
C1054 C     C_R   0.880753 0.248759 0.061141 0.000000
C1055 C     C_R   0.936043 0.282178 0.061886 0.000000
C1056 C     C_R   0.964060 0.343247 0.052026 0.000000
C1057 C     C_R   0.935994 0.370838 0.041857 0.000000
C1058 C     C_R   0.883432 0.329149 0.039182 0.000000
C1059 C     C_R   0.855313 0.267056 0.048776 0.000000
C1060 C     C_R   0.797094 0.243647 0.050178 0.000000
N163  N     N_R   0.763681 0.165894 0.052822 0.000000
C1061 C     C_R   0.718198 0.176987 0.058291 0.000000
C1062 C     C_R   0.673792 0.124326 0.065515 0.000000
C1063 C     C_R   0.637567 0.149156 0.073806 0.000000
C1064 C     C_R   0.649043 0.225970 0.075995 0.000000
C1065 C     C_R   0.693470 0.278072 0.068840 0.000000
C1066 C     C_R   0.724617 0.253013 0.059048 0.000000
N164  N     N_R   0.772487 0.299060 0.053445 0.000000
H649  H     H_    0.956240 0.267989 0.071575 0.000000
H650  H     H_    0.006482 0.373087 0.053422 0.000000
H651  H     H_    0.953547 0.426555 0.036346 0.000000
H652  H     H_    0.863005 0.350871 0.030819 0.000000
H653  H     H_    0.670149 0.066853 0.066656 0.000000
H654  H     H_    0.604018 0.108241 0.080127 0.000000
H655  H     H_    0.625576 0.247322 0.083723 0.000000
H656  H     H_    0.708684 0.335532 0.072882 0.000000
Br83  Br    Br    0.534240 0.985780 0.066590 0.000000
C1067 C     C_R   0.569539 0.999502 0.046169 0.000000
C1068 C     C_R   0.552023 0.026366 0.033070 0.000000
C1069 C     C_R   0.574088 0.021900 0.018125 0.000000
C1070 C     C_R   0.611484 0.986483 0.016257 0.000000
C1071 C     C_R   0.628719 0.959633 0.029281 0.000000
C1072 C     C_R   0.609779 0.970471 0.044292 0.000000
C1073 C     C_R   0.626792 0.938691 0.057801 0.000000
N165  N     N_R   0.683059 0.954163 0.057119 0.000000
C1074 C     C_R   0.683550 0.883042 0.057452 0.000000
C1075 C     C_R   0.727788 0.864101 0.054105 0.000000
C1076 C     C_R   0.718817 0.789456 0.050687 0.000000
C1077 C     C_R   0.666883 0.738029 0.048875 0.000000
C1078 C     C_R   0.622860 0.757823 0.053408 0.000000
C1079 C     C_R   0.632328 0.829665 0.058835 0.000000
N166  N     N_R   0.594694 0.862347 0.061774 0.000000
H657  H     H_    0.518026 0.044883 0.034018 0.000000
H658  H     H_    0.559316 0.041174 0.007825 0.000000
H659  H     H_    0.627576 0.979983 0.004661 0.000000
H660  H     H_    0.657518 0.930471 0.027553 0.000000
H661  H     H_    0.768150 0.905989 0.053387 0.000000
H662  H     H_    0.753543 0.774032 0.048912 0.000000
H663  H     H_    0.660383 0.681212 0.044485 0.000000
H664  H     H_    0.582849 0.721038 0.051498 0.000000
Br84  Br    Br    0.600646 0.799503 0.143743 0.000000
C1080 C     C_R   0.614455 0.774557 0.123451 0.000000
C1081 C     C_R   0.632380 0.715085 0.121337 0.000000
C1082 C     C_R   0.637620 0.689587 0.106304 0.000000
C1083 C     C_R   0.627495 0.727645 0.093727 0.000000
C1084 C     C_R   0.612909 0.789850 0.096185 0.000000
C1085 C     C_R   0.603900 0.811691 0.110900 0.000000
C1086 C     C_R   0.575123 0.864945 0.112210 0.000000
N167  N     N_R   0.535995 0.857597 0.101243 0.000000
C1087 C     C_R   0.508676 0.899327 0.108330 0.000000
C1088 C     C_R   0.464773 0.913356 0.103104 0.000000
C1089 C     C_R   0.441281 0.955000 0.112606 0.000000
C1090 C     C_R   0.464160 0.987452 0.126373 0.000000
C1091 C     C_R   0.510465 0.977277 0.131020 0.000000
C1092 C     C_R   0.530857 0.930266 0.122264 0.000000
N168  N     N_R   0.576548 0.915632 0.124868 0.000000
H665  H     H_    0.636551 0.686260 0.131880 0.000000
H666  H     H_    0.647002 0.638895 0.104165 0.000000
H667  H     H_    0.625003 0.705116 0.082085 0.000000
H668  H     H_    0.603022 0.817880 0.086789 0.000000
H669  H     H_    0.447957 0.891944 0.092123 0.000000
H670  H     H_    0.404237 0.961525 0.109379 0.000000
H671  H     H_    0.445185 0.019595 0.133650 0.000000
H672  H     H_    0.529334 0.003995 0.141570 0.000000
Br85  Br    Br    0.524195 0.700136 0.171763 0.000000
C1093 C     C_R   0.484899 0.746088 0.159642 0.000000
C1094 C     C_R   0.447232 0.703690 0.149422 0.000000
C1095 C     C_R   0.418345 0.737352 0.141037 0.000000
C1096 C     C_R   0.423716 0.811943 0.143964 0.000000
C1097 C     C_R   0.460667 0.853565 0.154268 0.000000
C1098 C     C_R   0.493515 0.822312 0.161636 0.000000
C1099 C     C_R   0.535915 0.867262 0.171948 0.000000
N169  N     N_R   0.535355 0.847972 0.187962 0.000000
C1100 C     C_R   0.584262 0.897971 0.191897 0.000000
C1101 C     C_R   0.610749 0.901198 0.205736 0.000000
C1102 C     C_R   0.659696 0.958959 0.207351 0.000000
C1103 C     C_R   0.681723 0.013018 0.195324 0.000000
C1104 C     C_R   0.657016 0.006259 0.181080 0.000000
C1105 C     C_R   0.608496 0.948477 0.179721 0.000000
N170  N     N_R   0.581981 0.928447 0.166432 0.000000
H673  H     H_    0.438484 0.642990 0.148254 0.000000
H674  H     H_    0.389732 0.703890 0.132877 0.000000
H675  H     H_    0.399288 0.838578 0.138190 0.000000
H676  H     H_    0.463830 0.911687 0.156186 0.000000
H677  H     H_    0.592851 0.862791 0.215668 0.000000
H678  H     H_    0.679715 0.963795 0.218334 0.000000
H679  H     H_    0.718670 0.059737 0.197240 0.000000
H680  H     H_    0.675075 0.044415 0.171129 0.000000
Br86  Br    Br    0.557373 0.115209 0.178083 0.000000
C1106 C     C_R   0.629361 0.167963 0.182017 0.000000
C1107 C     C_R   0.645739 0.187226 0.197130 0.000000
C1108 C     C_R   0.699887 0.212705 0.199885 0.000000
C1109 C     C_R   0.737138 0.222062 0.187307 0.000000
C1110 C     C_R   0.719961 0.207622 0.172111 0.000000
C1111 C     C_R   0.665849 0.181470 0.169349 0.000000
C1112 C     C_R   0.646732 0.174589 0.153178 0.000000
N171  N     N_R   0.635011 0.106732 0.144161 0.000000
C1113 C     C_R   0.622609 0.133385 0.130502 0.000000
C1114 C     C_R   0.602224 0.096073 0.117061 0.000000
C1115 C     C_R   0.571836 0.125636 0.108298 0.000000
C1116 C     C_R   0.580606 0.201956 0.109214 0.000000
C1117 C     C_R   0.618119 0.244943 0.119051 0.000000
C1118 C     C_R   0.627354 0.207734 0.131357 0.000000
N172  N     N_R   0.638592 0.237276 0.145514 0.000000
H681  H     H_    0.616290 0.182535 0.206816 0.000000
H682  H     H_    0.713032 0.226318 0.211765 0.000000
H683  H     H_    0.779868 0.242411 0.189285 0.000000
H684  H     H_    0.749195 0.215511 0.162440 0.000000
H685  H     H_    0.603678 0.042729 0.113735 0.000000
H686  H     H_    0.544697 0.090877 0.099949 0.000000
H687  H     H_    0.560222 0.228075 0.101870 0.000000
H688  H     H_    0.633397 0.305424 0.119198 0.000000
Br87  Br    Br    0.176702 0.862431 0.394880 0.000000
C1119 C     C_R   0.138695 0.771181 0.406711 0.000000
C1120 C     C_R   0.109037 0.780170 0.420084 0.000000
C1121 C     C_R   0.088624 0.722617 0.431351 0.000000
C1122 C     C_R   0.099876 0.656469 0.429524 0.000000
C1123 C     C_R   0.128137 0.646930 0.416061 0.000000
C1124 C     C_R   0.145637 0.701278 0.404056 0.000000
C1125 C     C_R   0.180462 0.685042 0.391287 0.000000
N173  N     N_R   0.169645 0.680308 0.374673 0.000000
C1126 C     C_R   0.208609 0.652614 0.369469 0.000000
C1127 C     C_R   0.222609 0.643046 0.354078 0.000000
C1128 C     C_R   0.262935 0.613196 0.350815 0.000000
C1129 C     C_R   0.288070 0.591928 0.362995 0.000000
C1130 C     C_R   0.276110 0.605846 0.378575 0.000000
C1131 C     C_R   0.237593 0.638608 0.381497 0.000000
N174  N     N_R   0.222699 0.659008 0.395762 0.000000
H689  H     H_    0.104205 0.834789 0.422156 0.000000
H690  H     H_    0.066626 0.731066 0.441953 0.000000
H691  H     H_    0.086802 0.612074 0.438652 0.000000
H692  H     H_    0.138530 0.596749 0.414960 0.000000
H693  H     H_    0.204265 0.661273 0.344796 0.000000
H694  H     H_    0.275023 0.606749 0.338646 0.000000
H695  H     H_    0.318689 0.567366 0.360146 0.000000
H696  H     H_    0.298074 0.594722 0.388098 0.000000
Br88  Br    Br    0.795977 0.500202 0.641439 0.000000
C1132 C     C_R   0.800903 0.418813 0.654188 0.000000
C1133 C     C_R   0.774862 0.345397 0.649730 0.000000
C1134 C     C_R   0.794039 0.288563 0.653371 0.000000
C1135 C     C_R   0.839618 0.306342 0.661706 0.000000
C1136 C     C_R   0.860357 0.377119 0.668337 0.000000
C1137 C     C_R   0.839463 0.432787 0.665079 0.000000
C1138 C     C_R   0.874716 0.509684 0.666867 0.000000
N175  N     N_R   0.915164 0.541611 0.654840 0.000000
C1139 C     C_R   0.942507 0.609403 0.661596 0.000000
C1140 C     C_R   0.987316 0.669020 0.655640 0.000000
C1141 C     C_R   0.011744 0.730316 0.665187 0.000000
C1142 C     C_R   0.990814 0.732793 0.680387 0.000000
C1143 C     C_R   0.944710 0.674569 0.685909 0.000000
C1144 C     C_R   0.920685 0.614623 0.676530 0.000000
N176  N     N_R   0.876312 0.553457 0.680701 0.000000
H697  H     H_    0.743688 0.333838 0.641820 0.000000
H698  H     H_    0.776367 0.232786 0.648261 0.000000
H699  H     H_    0.859103 0.264945 0.662954 0.000000
H700  H     H_    0.896168 0.392108 0.674947 0.000000
H701  H     H_    0.003768 0.669963 0.643880 0.000000
H702  H     H_    0.047816 0.776333 0.660905 0.000000
H703  H     H_    0.010360 0.780290 0.687899 0.000000
H704  H     H_    0.928364 0.673916 0.697450 0.000000
Br89  Br    Br    0.726715 0.420578 0.741015 0.000000
C1145 C     C_R   0.742395 0.353733 0.726624 0.000000
C1146 C     C_R   0.776877 0.313849 0.728830 0.000000
C1147 C     C_R   0.796718 0.285000 0.716042 0.000000
C1148 C     C_R   0.784790 0.299763 0.701187 0.000000
C1149 C     C_R   0.752413 0.341218 0.699144 0.000000
C1150 C     C_R   0.728132 0.362928 0.711961 0.000000
C1151 C     C_R   0.707679 0.422855 0.709166 0.000000
N177  N     N_R   0.654674 0.403699 0.704303 0.000000
C1152 C     C_R   0.662999 0.455956 0.692582 0.000000
C1153 C     C_R   0.625884 0.473740 0.684415 0.000000
C1154 C     C_R   0.644832 0.517170 0.670762 0.000000
C1155 C     C_R   0.697241 0.529377 0.664831 0.000000
C1156 C     C_R   0.735458 0.526931 0.675124 0.000000
C1157 C     C_R   0.716531 0.496900 0.689818 0.000000
N178  N     N_R   0.745538 0.487604 0.701619 0.000000
H705  H     H_    0.794463 0.312225 0.739818 0.000000
H706  H     H_    0.826835 0.259564 0.717414 0.000000
H707  H     H_    0.804062 0.284966 0.691063 0.000000
H708  H     H_    0.748179 0.360326 0.687383 0.000000
H709  H     H_    0.583530 0.453010 0.687781 0.000000
H710  H     H_    0.616731 0.532654 0.663925 0.000000
H711  H     H_    0.710235 0.554091 0.653080 0.000000
H712  H     H_    0.778223 0.550590 0.672031 0.000000
Br90  Br    Br    0.716137 0.647520 0.702046 0.000000
C1158 C     C_R   0.758228 0.686426 0.682758 0.000000
C1159 C     C_R   0.740483 0.688919 0.667915 0.000000
C1160 C     C_R   0.777675 0.706517 0.655295 0.000000
C1161 C     C_R   0.832439 0.731591 0.657746 0.000000
C1162 C     C_R   0.848477 0.747682 0.672806 0.000000
C1163 C     C_R   0.809662 0.725887 0.685000 0.000000
C1164 C     C_R   0.822121 0.736324 0.700941 0.000000
N179  N     N_R   0.834630 0.808613 0.707778 0.000000
C1165 C     C_R   0.868498 0.801334 0.718790 0.000000
C1166 C     C_R   0.901873 0.857857 0.727846 0.000000
C1167 C     C_R   0.947045 0.848412 0.733515 0.000000
C1168 C     C_R   0.957034 0.781490 0.730736 0.000000
C1169 C     C_R   0.918509 0.720151 0.724139 0.000000
C1170 C     C_R   0.873733 0.730071 0.718401 0.000000
N180  N     N_R   0.840838 0.683732 0.708095 0.000000
H713  H     H_    0.698148 0.670960 0.665805 0.000000
H714  H     H_    0.762870 0.702146 0.643618 0.000000
H715  H     H_    0.862617 0.747034 0.647961 0.000000
H716  H     H_    0.890670 0.775388 0.675029 0.000000
H717  H     H_    0.898396 0.912529 0.728970 0.000000
H718  H     H_    0.976204 0.895210 0.739333 0.000000
H719  H     H_    0.994402 0.776360 0.734227 0.000000
H720  H     H_    0.925994 0.667300 0.722373 0.000000
Br91  Br    Br    0.606353 0.288159 0.794349 0.000000
C1171 C     C_R   0.648635 0.266394 0.779342 0.000000
C1172 C     C_R   0.644054 0.191897 0.778973 0.000000
C1173 C     C_R   0.680269 0.169582 0.770268 0.000000
C1174 C     C_R   0.724544 0.224763 0.763099 0.000000
C1175 C     C_R   0.732326 0.300777 0.765537 0.000000
C1176 C     C_R   0.693320 0.322740 0.773312 0.000000
C1177 C     C_R   0.709362 0.400404 0.779533 0.000000
N181  N     N_R   0.676017 0.444228 0.783504 0.000000
C1178 C     C_R   0.714290 0.507371 0.788854 0.000000
C1179 C     C_R   0.708404 0.573993 0.792622 0.000000
C1180 C     C_R   0.754209 0.635837 0.795421 0.000000
C1181 C     C_R   0.805066 0.632317 0.793252 0.000000
C1182 C     C_R   0.810568 0.565865 0.788425 0.000000
C1183 C     C_R   0.764833 0.503816 0.787270 0.000000
N182  N     N_R   0.764079 0.437258 0.781780 0.000000
H721  H     H_    0.614681 0.152849 0.787080 0.000000
H722  H     H_    0.675644 0.110054 0.770723 0.000000
H723  H     H_    0.757378 0.209716 0.757812 0.000000
H724  H     H_    0.771447 0.342978 0.762471 0.000000
H725  H     H_    0.669046 0.576375 0.792191 0.000000
H726  H     H_    0.752022 0.690441 0.798276 0.000000
H727  H     H_    0.840347 0.682966 0.794459 0.000000
H728  H     H_    0.849256 0.565729 0.783998 0.000000
Br92  Br    Br    0.984057 0.599954 0.742683 0.000000
C1184 C     C_R   0.931521 0.634516 0.753638 0.000000
C1185 C     C_R   0.952615 0.698015 0.762727 0.000000
C1186 C     C_R   0.920902 0.738307 0.767940 0.000000
C1187 C     C_R   0.869053 0.717885 0.763296 0.000000
C1188 C     C_R   0.845543 0.650754 0.755269 0.000000
C1189 C     C_R   0.876389 0.607293 0.750703 0.000000
C1190 C     C_R   0.852223 0.530230 0.744404 0.000000
N183  N     N_R   0.853251 0.520297 0.727639 0.000000
C1191 C     C_R   0.876094 0.466267 0.726581 0.000000
C1192 C     C_R   0.900403 0.450763 0.712913 0.000000
C1193 C     C_R   0.939670 0.418746 0.714307 0.000000
C1194 C     C_R   0.953882 0.404563 0.729189 0.000000
C1195 C     C_R   0.924814 0.412963 0.742876 0.000000
C1196 C     C_R   0.883856 0.441075 0.741416 0.000000
N184  N     N_R   0.863559 0.474127 0.753262 0.000000
H729  H     H_    0.995261 0.719733 0.764742 0.000000
H730  H     H_    0.937524 0.788143 0.774997 0.000000
H731  H     H_    0.846759 0.753437 0.766978 0.000000
H732  H     H_    0.803301 0.631671 0.752863 0.000000
H733  H     H_    0.893634 0.470578 0.701538 0.000000
H734  H     H_    0.963136 0.412221 0.703876 0.000000
H735  H     H_    0.990195 0.391250 0.729929 0.000000
H736  H     H_    0.939570 0.410309 0.754384 0.000000
Br93  Br    Br    0.873387 0.218745 0.742431 0.000000
C1197 C     C_R   0.931467 0.260032 0.755686 0.000000
C1198 C     C_R   0.984739 0.283377 0.749857 0.000000
C1199 C     C_R   0.025528 0.326180 0.759027 0.000000
C1200 C     C_R   0.012583 0.349888 0.773615 0.000000
C1201 C     C_R   0.959216 0.328037 0.779179 0.000000
C1202 C     C_R   0.918876 0.278735 0.770602 0.000000
C1203 C     C_R   0.862252 0.255569 0.776368 0.000000
N185  N     N_R   0.840275 0.311378 0.781269 0.000000
C1204 C     C_R   0.798482 0.268369 0.790613 0.000000
C1205 C     C_R   0.767169 0.296060 0.800275 0.000000
C1206 C     C_R   0.723901 0.243714 0.808257 0.000000
C1207 C     C_R   0.716424 0.166942 0.808062 0.000000
C1208 C     C_R   0.750633 0.139662 0.799078 0.000000
C1209 C     C_R   0.791468 0.191662 0.790054 0.000000
N186  N     N_R   0.830772 0.178605 0.780930 0.000000
H737  H     H_    0.994461 0.272008 0.737744 0.000000
H738  H     H_    0.067189 0.344861 0.754405 0.000000
H739  H     H_    0.044101 0.386712 0.780548 0.000000
H740  H     H_    0.949483 0.349833 0.790293 0.000000
H741  H     H_    0.776682 0.356392 0.802107 0.000000
H742  H     H_    0.696554 0.262989 0.814910 0.000000
H743  H     H_    0.685914 0.129768 0.816005 0.000000
H744  H     H_    0.747153 0.081135 0.800243 0.000000
Br94  Br    Br    0.943517 0.426200 0.831508 0.000000
C1210 C     C_R   0.873168 0.422100 0.837513 0.000000
C1211 C     C_R   0.851148 0.387902 0.851764 0.000000
C1212 C     C_R   0.801986 0.388313 0.857409 0.000000
C1213 C     C_R   0.777241 0.427980 0.849000 0.000000
C1214 C     C_R   0.800214 0.465273 0.834763 0.000000
C1215 C     C_R   0.847366 0.458795 0.828539 0.000000
C1216 C     C_R   0.881634 0.514686 0.817040 0.000000
N187  N     N_R   0.923385 0.576141 0.823227 0.000000
C1217 C     C_R   0.957219 0.597296 0.810117 0.000000
C1218 C     C_R   0.007156 0.652226 0.809198 0.000000
C1219 C     C_R   0.037724 0.663194 0.794929 0.000000
C1220 C     C_R   0.019965 0.613803 0.782506 0.000000
C1221 C     C_R   0.968975 0.557858 0.783551 0.000000
C1222 C     C_R   0.937553 0.552551 0.797236 0.000000
N188  N     N_R   0.888031 0.500104 0.800545 0.000000
H745  H     H_    0.874124 0.363466 0.858578 0.000000
H746  H     H_    0.784033 0.361327 0.868715 0.000000
H747  H     H_    0.740355 0.430531 0.854104 0.000000
H748  H     H_    0.783024 0.502497 0.828921 0.000000
H749  H     H_    0.022278 0.682712 0.819677 0.000000
H750  H     H_    0.077254 0.707419 0.793697 0.000000
H751  H     H_    0.046186 0.619784 0.771922 0.000000
H752  H     H_    0.954644 0.518349 0.774087 0.000000
Br95  Br    Br    0.883052 0.848894 0.584709 0.000000
C1223 C     C_R   0.832650 0.763841 0.596669 0.000000
C1224 C     C_R   0.843469 0.745441 0.611591 0.000000
C1225 C     C_R   0.813216 0.676083 0.618701 0.000000
C1226 C     C_R   0.770448 0.626305 0.611377 0.000000
C1227 C     C_R   0.759624 0.644585 0.596496 0.000000
C1228 C     C_R   0.789330 0.714870 0.589459 0.000000
C1229 C     C_R   0.787374 0.724637 0.572678 0.000000
N189  N     N_R   0.794560 0.796119 0.564815 0.000000
C1230 C     C_R   0.806343 0.777037 0.549934 0.000000
C1231 C     C_R   0.833951 0.825837 0.537717 0.000000
C1232 C     C_R   0.838806 0.796825 0.523037 0.000000
C1233 C     C_R   0.821153 0.718688 0.521259 0.000000
C1234 C     C_R   0.806315 0.670642 0.534462 0.000000
C1235 C     C_R   0.800896 0.701037 0.548845 0.000000
N190  N     N_R   0.791164 0.664631 0.563117 0.000000
H753  H     H_    0.877634 0.783969 0.617366 0.000000
H754  H     H_    0.825025 0.658477 0.629600 0.000000
H755  H     H_    0.748108 0.571198 0.616904 0.000000
H756  H     H_    0.729041 0.602405 0.590118 0.000000
H757  H     H_    0.859049 0.882463 0.539895 0.000000
H758  H     H_    0.860294 0.834830 0.513266 0.000000
H759  H     H_    0.828791 0.696316 0.510068 0.000000
H760  H     H_    0.801142 0.611731 0.533458 0.000000
Br96  Br    Br    0.692458 0.243536 0.568715 0.000000
C1236 C     C_R   0.683869 0.285054 0.588373 0.000000
C1237 C     C_R   0.687834 0.246637 0.601789 0.000000
C1238 C     C_R   0.691117 0.282470 0.616067 0.000000
C1239 C     C_R   0.698854 0.359846 0.616395 0.000000
C1240 C     C_R   0.700496 0.399125 0.602574 0.000000
C1241 C     C_R   0.684823 0.359209 0.589151 0.000000
C1242 C     C_R   0.669819 0.395854 0.575943 0.000000
N191  N     N_R   0.704942 0.463571 0.568298 0.000000
C1243 C     C_R   0.671044 0.475178 0.557949 0.000000
C1244 C     C_R   0.679253 0.536972 0.548110 0.000000
C1245 C     C_R   0.643434 0.530233 0.536453 0.000000
C1246 C     C_R   0.602001 0.460782 0.534607 0.000000
C1247 C     C_R   0.589056 0.404692 0.546298 0.000000
C1248 C     C_R   0.622053 0.416916 0.558617 0.000000
N192  N     N_R   0.616571 0.369061 0.570921 0.000000
H761  H     H_    0.688306 0.188726 0.601140 0.000000
H762  H     H_    0.691618 0.250302 0.626639 0.000000
H763  H     H_    0.703467 0.390677 0.627272 0.000000
H764  H     H_    0.710164 0.460170 0.602384 0.000000
H765  H     H_    0.713253 0.587652 0.548769 0.000000
H766  H     H_    0.651210 0.576348 0.527763 0.000000
H767  H     H_    0.578849 0.451241 0.524192 0.000000
H768  H     H_    0.556750 0.351000 0.545058 0.000000
Br97  Br    Br    0.328549 0.737151 0.024217 0.000000
C1249 C     C_R   0.298157 0.809239 0.016372 0.000000
C1250 C     C_R   0.331873 0.876707 0.009312 0.000000
C1251 C     C_R   0.320666 0.942868 0.012088 0.000000
C1252 C     C_R   0.271173 0.937751 0.019219 0.000000
C1253 C     C_R   0.232902 0.867308 0.023021 0.000000
C1254 C     C_R   0.246915 0.803050 0.021882 0.000000
C1255 C     C_R   0.216497 0.734924 0.031017 0.000000
N193  N     N_R   0.190930 0.663813 0.023541 0.000000
C1256 C     C_R   0.191567 0.616417 0.035451 0.000000
C1257 C     C_R   0.167328 0.539593 0.036034 0.000000
C1258 C     C_R   0.172768 0.501507 0.049323 0.000000
C1259 C     C_R   0.206695 0.539381 0.061010 0.000000
C1260 C     C_R   0.229204 0.617734 0.060568 0.000000
C1261 C     C_R   0.216921 0.654745 0.048329 0.000000
N194  N     N_R   0.229234 0.730523 0.046952 0.000000
H769  H     H_    0.370634 0.879917 0.003871 0.000000
H770  H     H_    0.350563 0.997921 0.008593 0.000000
H771  H     H_    0.261669 0.988074 0.021915 0.000000
H772  H     H_    0.194033 0.863578 0.028323 0.000000
H773  H     H_    0.142699 0.509831 0.026895 0.000000
H774  H     H_    0.150769 0.441204 0.049914 0.000000
H775  H     H_    0.212472 0.509848 0.071273 0.000000
H776  H     H_    0.251560 0.649020 0.070165 0.000000
Br98  Br    Br    0.996171 0.199430 0.603789 0.000000
C1262 C     C_R   0.943904 0.184790 0.588909 0.000000
C1263 C     C_R   0.956542 0.241384 0.577683 0.000000
C1264 C     C_R   0.919976 0.238013 0.566834 0.000000
C1265 C     C_R   0.867547 0.190503 0.568963 0.000000
C1266 C     C_R   0.855535 0.131028 0.579519 0.000000
C1267 C     C_R   0.895755 0.123197 0.588136 0.000000
C1268 C     C_R   0.882070 0.050779 0.596543 0.000000
N195  N     N_R   0.842393 0.984288 0.590514 0.000000
C1269 C     C_R   0.828683 0.942603 0.604055 0.000000
C1270 C     C_R   0.786305 0.876186 0.606435 0.000000
C1271 C     C_R   0.781240 0.838517 0.620806 0.000000
C1272 C     C_R   0.821442 0.865424 0.631412 0.000000
C1273 C     C_R   0.862731 0.933647 0.629049 0.000000
C1274 C     C_R   0.862471 0.974641 0.615950 0.000000
N196  N     N_R   0.895679 0.046078 0.612473 0.000000
H777  H     H_    0.996016 0.286025 0.576920 0.000000
H778  H     H_    0.932042 0.276827 0.557170 0.000000
H779  H     H_    0.837139 0.197222 0.561735 0.000000
H780  H     H_    0.814851 0.090212 0.580929 0.000000
H781  H     H_    0.761340 0.851901 0.596824 0.000000
H782  H     H_    0.749345 0.783987 0.623217 0.000000
H783  H     H_    0.819868 0.835493 0.642111 0.000000
H784  H     H_    0.893416 0.953829 0.637362 0.000000
Br99  Br    Br    0.318062 0.886451 0.900072 0.000000
C1275 C     C_R   0.333017 0.799106 0.892315 0.000000
C1276 C     C_R   0.382550 0.800036 0.887886 0.000000
C1277 C     C_R   0.386461 0.734005 0.881909 0.000000
C1278 C     C_R   0.344244 0.673378 0.877221 0.000000
C1279 C     C_R   0.295704 0.669100 0.883491 0.000000
C1280 C     C_R   0.293075 0.730008 0.892063 0.000000
C1281 C     C_R   0.245802 0.720860 0.900705 0.000000
N197  N     N_R   0.242973 0.753451 0.915474 0.000000
C1282 C     C_R   0.189804 0.735492 0.917356 0.000000
C1283 C     C_R   0.164830 0.768382 0.927835 0.000000
C1284 C     C_R   0.109999 0.747986 0.927305 0.000000
C1285 C     C_R   0.081747 0.689757 0.917531 0.000000
C1286 C     C_R   0.107939 0.658640 0.906655 0.000000
C1287 C     C_R   0.163127 0.688142 0.905690 0.000000
N198  N     N_R   0.198268 0.681171 0.893986 0.000000
H785  H     H_    0.417545 0.846040 0.891290 0.000000
H786  H     H_    0.422151 0.724296 0.883644 0.000000
H787  H     H_    0.349770 0.622955 0.872254 0.000000
H788  H     H_    0.262356 0.615547 0.883418 0.000000
H789  H     H_    0.187966 0.808497 0.936135 0.000000
H790  H     H_    0.089422 0.774359 0.935290 0.000000
H791  H     H_    0.038950 0.669248 0.917740 0.000000
H792  H     H_    0.084511 0.620283 0.898184 0.000000
Br100 Br    Br    0.150294 0.935114 0.936931 0.000000
C1288 C     C_R   0.190418 0.926135 0.954173 0.000000
C1289 C     C_R   0.165186 0.880188 0.967074 0.000000
C1290 C     C_R   0.193849 0.871171 0.979498 0.000000
C1291 C     C_R   0.247957 0.910858 0.979125 0.000000
C1292 C     C_R   0.272446 0.962206 0.967025 0.000000
C1293 C     C_R   0.244659 0.965501 0.954005 0.000000
C1294 C     C_R   0.277296 0.990726 0.939495 0.000000
N199  N     N_R   0.305249 0.942523 0.934128 0.000000
C1295 C     C_R   0.354201 0.996670 0.930057 0.000000
C1296 C     C_R   0.401657 0.986363 0.925681 0.000000
C1297 C     C_R   0.447764 0.036837 0.931476 0.000000
C1298 C     C_R   0.441920 0.086728 0.942813 0.000000
C1299 C     C_R   0.397606 0.109294 0.942820 0.000000
C1300 C     C_R   0.355851 0.068540 0.934079 0.000000
N200  N     N_R   0.306569 0.070063 0.937439 0.000000
H793  H     H_    0.123480 0.847574 0.967064 0.000000
H794  H     H_    0.174326 0.833127 0.989459 0.000000
H795  H     H_    0.271291 0.899864 0.987963 0.000000
H796  H     H_    0.314868 0.995781 0.967133 0.000000
H797  H     H_    0.403469 0.939750 0.918741 0.000000
H798  H     H_    0.486234 0.029546 0.929154 0.000000
H799  H     H_    0.473352 0.111668 0.950866 0.000000
H800  H     H_    0.392850 0.150788 0.950987 0.000000
Br101 Br    Br    0.191192 0.584704 0.937151 0.000000
C1301 C     C_R   0.141342 0.621628 0.947237 0.000000
C1302 C     C_R   0.088700 0.585316 0.943693 0.000000
C1303 C     C_R   0.049174 0.607907 0.950548 0.000000
C1304 C     C_R   0.062615 0.666078 0.961242 0.000000
C1305 C     C_R   0.114172 0.696631 0.965904 0.000000
C1306 C     C_R   0.155044 0.679181 0.958276 0.000000
C1307 C     C_R   0.207056 0.704598 0.965408 0.000000
N201  N     N_R   0.209000 0.674042 0.980410 0.000000
C1308 C     C_R   0.262009 0.689169 0.981058 0.000000
C1309 C     C_R   0.285781 0.662770 0.992540 0.000000
C1310 C     C_R   0.340835 0.677289 0.990687 0.000000
C1311 C     C_R   0.369663 0.714385 0.977266 0.000000
C1312 C     C_R   0.343799 0.734043 0.965282 0.000000
C1313 C     C_R   0.290434 0.727245 0.967654 0.000000
N202  N     N_R   0.257932 0.744597 0.957432 0.000000
H801  H     H_    0.078669 0.541007 0.934969 0.000000
H802  H     H_    0.008554 0.580685 0.947039 0.000000
H803  H     H_    0.032837 0.685549 0.966924 0.000000
H804  H     H_    0.121748 0.732032 0.976091 0.000000
H805  H     H_    0.261723 0.630568 0.002663 0.000000
H806  H     H_    0.361998 0.659744 0.999618 0.000000
H807  H     H_    0.412746 0.727698 0.976009 0.000000
H808  H     H_    0.367247 0.755840 0.954780 0.000000
Br102 Br    Br    0.376256 0.906097 0.961221 0.000000
C1314 C     C_R   0.448288 0.915065 0.955746 0.000000
C1315 C     C_R   0.483662 0.956827 0.966539 0.000000
C1316 C     C_R   0.538261 0.976582 0.963774 0.000000
C1317 C     C_R   0.557809 0.954213 0.950025 0.000000
C1318 C     C_R   0.522805 0.912342 0.939244 0.000000
C1319 C     C_R   0.467624 0.890965 0.941627 0.000000
C1320 C     C_R   0.434736 0.839154 0.929527 0.000000
N203  N     N_R   0.458355 0.796344 0.919732 0.000000
C1321 C     C_R   0.413897 0.734564 0.918015 0.000000
C1322 C     C_R   0.410996 0.669980 0.910855 0.000000
C1323 C     C_R   0.360469 0.614564 0.909064 0.000000
C1324 C     C_R   0.315495 0.619615 0.917071 0.000000
C1325 C     C_R   0.320458 0.684030 0.925482 0.000000
C1326 C     C_R   0.368383 0.742783 0.924172 0.000000
N204  N     N_R   0.377268 0.811401 0.930093 0.000000
H809  H     H_    0.467957 0.976029 0.977180 0.000000
H810  H     H_    0.565247 0.010675 0.972240 0.000000
H811  H     H_    0.600777 0.969811 0.947504 0.000000
H812  H     H_    0.539277 0.896878 0.928627 0.000000
H813  H     H_    0.448151 0.667327 0.906249 0.000000
H814  H     H_    0.355511 0.566420 0.901502 0.000000
H815  H     H_    0.276643 0.576034 0.915722 0.000000
H816  H     H_    0.287721 0.690631 0.932399 0.000000
Br103 Br    Br    0.297991 0.853717 0.548214 0.000000
C1327 C     C_R   0.309971 0.880506 0.569406 0.000000
C1328 C     C_R   0.335390 0.956465 0.571638 0.000000
C1329 C     C_R   0.341751 0.984482 0.586387 0.000000
C1330 C     C_R   0.322393 0.937560 0.599456 0.000000
C1331 C     C_R   0.299371 0.860796 0.597364 0.000000
C1332 C     C_R   0.292512 0.831391 0.582452 0.000000
C1333 C     C_R   0.258600 0.751870 0.581556 0.000000
N205  N     N_R   0.219337 0.718176 0.593778 0.000000
C1334 C     C_R   0.195020 0.647727 0.587745 0.000000
C1335 C     C_R   0.151009 0.588369 0.593903 0.000000
C1336 C     C_R   0.133527 0.520254 0.585972 0.000000
C1337 C     C_R   0.160967 0.510911 0.572151 0.000000
C1338 C     C_R   0.203708 0.571898 0.565628 0.000000
C1339 C     C_R   0.219322 0.639890 0.573429 0.000000
N206  N     N_R   0.260129 0.704554 0.568795 0.000000
H817  H     H_    0.349976 0.995591 0.561690 0.000000
H818  H     H_    0.367352 0.041789 0.587257 0.000000
H819  H     H_    0.328902 0.959347 0.611238 0.000000
H820  H     H_    0.286632 0.823944 0.607539 0.000000
H821  H     H_    0.130851 0.592026 0.604823 0.000000
H822  H     H_    0.098237 0.473794 0.590687 0.000000
H823  H     H_    0.146985 0.457334 0.566003 0.000000
H824  H     H_    0.222730 0.567453 0.554378 0.000000
Br104 Br    Br    0.135103 0.558705 0.513916 0.000000
C1340 C     C_R   0.143127 0.607980 0.533311 0.000000
C1341 C     C_R   0.109730 0.573171 0.546100 0.000000
C1342 C     C_R   0.104444 0.616020 0.558764 0.000000
C1343 C     C_R   0.133850 0.693293 0.558790 0.000000
C1344 C     C_R   0.168773 0.727191 0.546164 0.000000
C1345 C     C_R   0.174476 0.683675 0.533582 0.000000
C1346 C     C_R   0.220205 0.712769 0.522237 0.000000
N207  N     N_R   0.271912 0.718318 0.526546 0.000000
C1347 C     C_R   0.300837 0.744266 0.512834 0.000000
C1348 C     C_R   0.351447 0.743304 0.508868 0.000000
C1349 C     C_R   0.375698 0.776201 0.494463 0.000000
C1350 C     C_R   0.346581 0.800195 0.483716 0.000000
C1351 C     C_R   0.292185 0.787039 0.486835 0.000000
C1352 C     C_R   0.269721 0.757966 0.501522 0.000000
N208  N     N_R   0.216633 0.732533 0.506341 0.000000
H825  H     H_    0.089427 0.511833 0.546524 0.000000
H826  H     H_    0.078747 0.587578 0.568839 0.000000
H827  H     H_    0.131426 0.726806 0.568922 0.000000
H828  H     H_    0.190692 0.787866 0.546137 0.000000
H829  H     H_    0.372721 0.722003 0.517175 0.000000
H830  H     H_    0.417576 0.783257 0.491589 0.000000
H831  H     H_    0.365991 0.826706 0.472530 0.000000
H832  H     H_    0.269061 0.802555 0.478220 0.000000
Br105 Br    Br    0.466759 0.707590 0.531483 0.000000
C1353 C     C_R   0.447992 0.675878 0.553242 0.000000
C1354 C     C_R   0.444005 0.602648 0.556385 0.000000
C1355 C     C_R   0.438347 0.575451 0.571591 0.000000
C1356 C     C_R   0.432553 0.619539 0.583886 0.000000
C1357 C     C_R   0.430023 0.691180 0.580852 0.000000
C1358 C     C_R   0.437425 0.719117 0.565555 0.000000
C1359 C     C_R   0.431700 0.791658 0.562074 0.000000
N209  N     N_R   0.480409 0.854149 0.560447 0.000000
C1360 C     C_R   0.478596 0.876884 0.545548 0.000000
C1361 C     C_R   0.522233 0.914477 0.535356 0.000000
C1362 C     C_R   0.512367 0.927396 0.519906 0.000000
C1363 C     C_R   0.459584 0.911189 0.515722 0.000000
C1364 C     C_R   0.416470 0.871832 0.526198 0.000000
C1365 C     C_R   0.427339 0.845096 0.540309 0.000000
N210  N     N_R   0.394991 0.788535 0.550517 0.000000
H833  H     H_    0.441989 0.565144 0.546658 0.000000
H834  H     H_    0.432818 0.516479 0.573679 0.000000
H835  H     H_    0.427241 0.594630 0.595602 0.000000
H836  H     H_    0.421249 0.725330 0.590170 0.000000
H837  H     H_    0.562932 0.927944 0.538899 0.000000
H838  H     H_    0.545761 0.955649 0.511439 0.000000
H839  H     H_    0.452095 0.929368 0.504173 0.000000
H840  H     H_    0.376135 0.865054 0.523333 0.000000
Br106 Br    Br    0.383969 0.463767 0.511794 0.000000
C1366 C     C_R   0.309469 0.447876 0.513814 0.000000
C1367 C     C_R   0.275544 0.396921 0.504036 0.000000
C1368 C     C_R   0.223199 0.392739 0.503265 0.000000
C1369 C     C_R   0.204353 0.438407 0.512703 0.000000
C1370 C     C_R   0.237275 0.486949 0.523198 0.000000
C1371 C     C_R   0.290296 0.491497 0.523978 0.000000
C1372 C     C_R   0.316559 0.514287 0.538810 0.000000
N211  N     N_R   0.322127 0.455896 0.548590 0.000000
C1373 C     C_R   0.325643 0.489653 0.562550 0.000000
C1374 C     C_R   0.324351 0.455894 0.576807 0.000000
C1375 C     C_R   0.308833 0.489493 0.589798 0.000000
C1376 C     C_R   0.305985 0.561819 0.588387 0.000000
C1377 C     C_R   0.320200 0.601267 0.574399 0.000000
C1378 C     C_R   0.323662 0.561528 0.561402 0.000000
N212  N     N_R   0.318968 0.582732 0.546642 0.000000
H841  H     H_    0.288974 0.356693 0.497702 0.000000
H842  H     H_    0.196193 0.351017 0.495962 0.000000
H843  H     H_    0.162232 0.429619 0.512988 0.000000
H844  H     H_    0.219736 0.516031 0.531597 0.000000
H845  H     H_    0.328654 0.400900 0.577396 0.000000
H846  H     H_    0.295396 0.457079 0.600662 0.000000
H847  H     H_    0.292460 0.589255 0.597794 0.000000
H848  H     H_    0.327747 0.661332 0.573857 0.000000
Br107 Br    Br    0.490730 0.286857 0.956527 0.000000
C1379 C     C_R   0.499078 0.253073 0.935493 0.000000
C1380 C     C_R   0.538790 0.222474 0.933365 0.000000
C1381 C     C_R   0.545474 0.187969 0.919535 0.000000
C1382 C     C_R   0.511906 0.185301 0.907662 0.000000
C1383 C     C_R   0.472804 0.218634 0.909430 0.000000
C1384 C     C_R   0.463937 0.248496 0.923572 0.000000
C1385 C     C_R   0.433539 0.299358 0.924172 0.000000
N213  N     N_R   0.382149 0.279667 0.932324 0.000000
C1386 C     C_R   0.389079 0.345396 0.940029 0.000000
C1387 C     C_R   0.351554 0.364995 0.948909 0.000000
C1388 C     C_R   0.370096 0.424264 0.959172 0.000000
C1389 C     C_R   0.424793 0.458446 0.960724 0.000000
C1390 C     C_R   0.460523 0.450446 0.948981 0.000000
C1391 C     C_R   0.440331 0.396421 0.937678 0.000000
N214  N     N_R   0.466942 0.374719 0.925636 0.000000
H849  H     H_    0.559209 0.217799 0.943615 0.000000
H850  H     H_    0.576015 0.162026 0.918009 0.000000
H851  H     H_    0.518989 0.161739 0.896525 0.000000
H852  H     H_    0.450252 0.224036 0.899551 0.000000
H853  H     H_    0.309021 0.333214 0.948572 0.000000
H854  H     H_    0.342213 0.436405 0.967402 0.000000
H855  H     H_    0.439106 0.495678 0.970537 0.000000
H856  H     H_    0.502111 0.485656 0.949270 0.000000
Br108 Br    Br    0.139568 0.254037 0.920599 0.000000
C1392 C     C_R   0.200664 0.343779 0.919559 0.000000
C1393 C     C_R   0.199627 0.406153 0.927866 0.000000
C1394 C     C_R   0.245790 0.451681 0.934359 0.000000
C1395 C     C_R   0.293506 0.443238 0.929959 0.000000
C1396 C     C_R   0.294915 0.384754 0.920136 0.000000
C1397 C     C_R   0.248133 0.335672 0.914690 0.000000
C1398 C     C_R   0.244642 0.262750 0.908022 0.000000
N215  N     N_R   0.251782 0.205377 0.917650 0.000000
C1399 C     C_R   0.224295 0.143510 0.909616 0.000000
C1400 C     C_R   0.217296 0.070824 0.913684 0.000000
C1401 C     C_R   0.197922 0.015147 0.902740 0.000000
C1402 C     C_R   0.187002 0.035896 0.888045 0.000000
C1403 C     C_R   0.191662 0.109404 0.884191 0.000000
C1404 C     C_R   0.207997 0.161913 0.895580 0.000000
N216  N     N_R   0.218728 0.237082 0.893783 0.000000
H857  H     H_    0.161873 0.414139 0.930568 0.000000
H858  H     H_    0.245645 0.492831 0.943245 0.000000
H859  H     H_    0.328728 0.480644 0.935246 0.000000
H860  H     H_    0.331890 0.374046 0.917422 0.000000
H861  H     H_    0.227259 0.060215 0.925122 0.000000
H862  H     H_    0.194267 0.956370 0.905172 0.000000
H863  H     H_    0.176386 0.994845 0.879287 0.000000
H864  H     H_    0.185494 0.124843 0.872375 0.000000
Br109 Br    Br    0.952810 0.076493 0.406767 0.000000
C1405 C     C_R   0.901591 0.119569 0.414416 0.000000
C1406 C     C_R   0.913969 0.184502 0.423298 0.000000
C1407 C     C_R   0.872723 0.206926 0.429532 0.000000
C1408 C     C_R   0.821066 0.157262 0.429388 0.000000
C1409 C     C_R   0.809632 0.095974 0.419628 0.000000
C1410 C     C_R   0.849659 0.081938 0.411049 0.000000
C1411 C     C_R   0.837929 0.013242 0.402101 0.000000
N217  N     N_R   0.851735 0.012701 0.385807 0.000000
C1412 C     C_R   0.847648 0.938874 0.384315 0.000000
C1413 C     C_R   0.848876 0.902541 0.370364 0.000000
C1414 C     C_R   0.836815 0.824322 0.370900 0.000000
C1415 C     C_R   0.829108 0.785679 0.385284 0.000000
C1416 C     C_R   0.825070 0.822114 0.399093 0.000000
C1417 C     C_R   0.831272 0.898192 0.398388 0.000000
N218  N     N_R   0.820281 0.941952 0.409913 0.000000
H865  H     H_    0.955302 0.216467 0.425818 0.000000
H866  H     H_    0.880266 0.256187 0.436819 0.000000
H867  H     H_    0.790387 0.167089 0.436979 0.000000
H868  H     H_    0.769725 0.058890 0.418121 0.000000
H869  H     H_    0.861563 0.934153 0.359334 0.000000
H870  H     H_    0.839390 0.794381 0.360201 0.000000
H871  H     H_    0.827424 0.726996 0.385795 0.000000
H872  H     H_    0.820262 0.791035 0.409868 0.000000
Br110 Br    Br    0.920671 0.186888 0.460029 0.000000
C1418 C     C_R   0.944508 0.108525 0.453066 0.000000
C1419 C     C_R   0.998414 0.124401 0.449133 0.000000
C1420 C     C_R   0.015849 0.067332 0.443670 0.000000
C1421 C     C_R   0.978625 0.997108 0.440352 0.000000
C1422 C     C_R   0.924207 0.983689 0.443449 0.000000
C1423 C     C_R   0.907229 0.037736 0.450586 0.000000
C1424 C     C_R   0.854250 0.011945 0.459116 0.000000
N219  N     N_R   0.852352 0.016346 0.475790 0.000000
C1425 C     C_R   0.807170 0.954893 0.479503 0.000000
C1426 C     C_R   0.794365 0.914033 0.493516 0.000000
C1427 C     C_R   0.748838 0.848026 0.494762 0.000000
C1428 C     C_R   0.718585 0.821315 0.481799 0.000000
C1429 C     C_R   0.736759 0.856542 0.467148 0.000000
C1430 C     C_R   0.781145 0.922456 0.466294 0.000000
N220  N     N_R   0.809085 0.955332 0.452868 0.000000
H873  H     H_    0.027181 0.180950 0.450755 0.000000
H874  H     H_    0.058491 0.079099 0.441508 0.000000
H875  H     H_    0.992343 0.952935 0.435477 0.000000
H876  H     H_    0.894142 0.929471 0.441427 0.000000
H877  H     H_    0.822424 0.927376 0.502626 0.000000
H878  H     H_    0.739302 0.813073 0.505500 0.000000
H879  H     H_    0.684868 0.767608 0.482786 0.000000
H880  H     H_    0.719160 0.829733 0.456528 0.000000
Br111 Br    Br    0.907147 0.808226 0.427740 0.000000
C1431 C     C_R   0.873948 0.782065 0.448320 0.000000
C1432 C     C_R   0.904987 0.813354 0.460723 0.000000
C1433 C     C_R   0.882358 0.804483 0.475951 0.000000
C1434 C     C_R   0.828267 0.764297 0.478588 0.000000
C1435 C     C_R   0.797414 0.733499 0.466120 0.000000
C1436 C     C_R   0.820196 0.738021 0.451077 0.000000
C1437 C     C_R   0.783193 0.718019 0.438453 0.000000
N221  N     N_R   0.763460 0.773864 0.432788 0.000000
C1438 C     C_R   0.725101 0.730941 0.423876 0.000000
C1439 C     C_R   0.699221 0.757316 0.413043 0.000000
C1440 C     C_R   0.658633 0.703692 0.405683 0.000000
C1441 C     C_R   0.647500 0.626965 0.409016 0.000000
C1442 C     C_R   0.681123 0.603240 0.417778 0.000000
C1443 C     C_R   0.720266 0.655863 0.424704 0.000000
N222  N     N_R   0.757306 0.642112 0.433140 0.000000
H881  H     H_    0.946742 0.847160 0.458054 0.000000
H882  H     H_    0.906056 0.830935 0.485722 0.000000
H883  H     H_    0.809195 0.760322 0.490264 0.000000
H884  H     H_    0.754090 0.711036 0.467811 0.000000
H885  H     H_    0.711700 0.817240 0.409842 0.000000
H886  H     H_    0.636046 0.721450 0.397277 0.000000
H887  H     H_    0.615703 0.585292 0.403652 0.000000
H888  H     H_    0.680295 0.546556 0.418907 0.000000
Br112 Br    Br    0.538795 0.719969 0.411591 0.000000
C1444 C     C_R   0.562052 0.732095 0.432576 0.000000
C1445 C     C_R   0.531055 0.684246 0.444758 0.000000
C1446 C     C_R   0.545067 0.695106 0.460235 0.000000
C1447 C     C_R   0.587281 0.759036 0.463874 0.000000
C1448 C     C_R   0.615823 0.809898 0.451947 0.000000
C1449 C     C_R   0.605522 0.795022 0.436108 0.000000
C1450 C     C_R   0.634620 0.855585 0.424300 0.000000
N223  N     N_R   0.686727 0.901833 0.428616 0.000000
C1451 C     C_R   0.680001 0.970004 0.428947 0.000000
C1452 C     C_R   0.699851 0.025900 0.439903 0.000000
C1453 C     C_R   0.682236 0.087935 0.439710 0.000000
C1454 C     C_R   0.649992 0.095714 0.428008 0.000000
C1455 C     C_R   0.626995 0.035357 0.418392 0.000000
C1456 C     C_R   0.636233 0.968763 0.420921 0.000000
N224  N     N_R   0.604517 0.896681 0.417463 0.000000
H889  H     H_    0.493957 0.639270 0.442462 0.000000
H890  H     H_    0.520438 0.656737 0.469579 0.000000
H891  H     H_    0.595887 0.771750 0.476129 0.000000
H892  H     H_    0.644378 0.863876 0.455428 0.000000
H893  H     H_    0.727639 0.021215 0.448425 0.000000
H894  H     H_    0.696229 0.133982 0.447819 0.000000
H895  H     H_    0.640879 0.147685 0.426818 0.000000
H896  H     H_    0.604523 0.041884 0.408918 0.000000
Br113 Br    Br    0.704181 0.528680 0.018040 0.000000
C1457 C     C_R   0.763095 0.616051 0.023546 0.000000
C1458 C     C_R   0.755675 0.685508 0.023785 0.000000
C1459 C     C_R   0.799471 0.752334 0.024389 0.000000
C1460 C     C_R   0.850167 0.749302 0.025516 0.000000
C1461 C     C_R   0.856210 0.679473 0.026637 0.000000
C1462 C     C_R   0.813861 0.613447 0.025692 0.000000
C1463 C     C_R   0.826973 0.545665 0.022587 0.000000
N225  N     N_R   0.804220 0.477069 0.031482 0.000000
C1464 C     C_R   0.804084 0.426525 0.020305 0.000000
C1465 C     C_R   0.769828 0.352406 0.020370 0.000000
C1466 C     C_R   0.771461 0.310657 0.007225 0.000000
C1467 C     C_R   0.807399 0.342509 0.994529 0.000000
C1468 C     C_R   0.835979 0.420365 0.993853 0.000000
C1469 C     C_R   0.832070 0.461569 0.006724 0.000000
N226  N     N_R   0.848125 0.538196 0.007493 0.000000
H897  H     H_    0.716176 0.687863 0.021956 0.000000
H898  H     H_    0.793855 0.807021 0.023476 0.000000
H899  H     H_    0.885380 0.800725 0.025441 0.000000
H900  H     H_    0.894220 0.674505 0.028742 0.000000
H901  H     H_    0.738957 0.329158 0.029625 0.000000
H902  H     H_    0.742476 0.254669 0.006606 0.000000
H903  H     H_    0.809639 0.307409 0.984580 0.000000
H904  H     H_    0.858595 0.448529 0.983352 0.000000
Br114 Br    Br    0.919458 0.595752 0.056036 0.000000
C1470 C     C_R   0.875398 0.652234 0.063896 0.000000
C1471 C     C_R   0.887495 0.726294 0.058346 0.000000
C1472 C     C_R   0.857341 0.769461 0.063574 0.000000
C1473 C     C_R   0.822980 0.745483 0.076720 0.000000
C1474 C     C_R   0.816485 0.676117 0.083808 0.000000
C1475 C     C_R   0.837020 0.625062 0.076360 0.000000
C1476 C     C_R   0.828310 0.550010 0.083650 0.000000
N227  N     N_R   0.819450 0.483062 0.074759 0.000000
C1477 C     C_R   0.842432 0.445644 0.084157 0.000000
C1478 C     C_R   0.863197 0.391022 0.079929 0.000000
C1479 C     C_R   0.890332 0.366394 0.091217 0.000000
C1480 C     C_R   0.889040 0.387789 0.106692 0.000000
C1481 C     C_R   0.874235 0.449589 0.110227 0.000000
C1482 C     C_R   0.855374 0.480805 0.098277 0.000000
N228  N     N_R   0.846123 0.546524 0.098872 0.000000
H905  H     H_    0.920790 0.750823 0.049703 0.000000
H906  H     H_    0.863858 0.825028 0.058419 0.000000
H907  H     H_    0.802281 0.781767 0.081571 0.000000
H908  H     H_    0.793400 0.662283 0.094797 0.000000
H909  H     H_    0.863202 0.375983 0.067826 0.000000
H910  H     H_    0.912646 0.329386 0.088551 0.000000
H911  H     H_    0.903129 0.359080 0.115591 0.000000
H912  H     H_    0.874928 0.470382 0.122056 0.000000
Br115 Br    Br    0.922765 0.648102 0.451860 0.000000
C1483 C     C_R   0.923731 0.552838 0.444596 0.000000
C1484 C     C_R   0.966671 0.552623 0.435029 0.000000
C1485 C     C_R   0.972705 0.484621 0.431031 0.000000
C1486 C     C_R   0.935149 0.416520 0.436414 0.000000
C1487 C     C_R   0.891995 0.416364 0.446301 0.000000
C1488 C     C_R   0.885421 0.485109 0.450010 0.000000
C1489 C     C_R   0.840018 0.489233 0.460008 0.000000
N229  N     N_R   0.843360 0.496969 0.476423 0.000000
C1490 C     C_R   0.803119 0.525334 0.479734 0.000000
C1491 C     C_R   0.793473 0.561160 0.493067 0.000000
C1492 C     C_R   0.751411 0.590179 0.493320 0.000000
C1493 C     C_R   0.717994 0.578946 0.480894 0.000000
C1494 C     C_R   0.732348 0.551542 0.466938 0.000000
C1495 C     C_R   0.775555 0.527493 0.466618 0.000000
N230  N     N_R   0.797153 0.506140 0.453649 0.000000
H913  H     H_    0.995492 0.606576 0.430870 0.000000
H914  H     H_    0.008447 0.484215 0.424504 0.000000
H915  H     H_    0.942912 0.364649 0.433752 0.000000
H916  H     H_    0.864565 0.362735 0.451388 0.000000
H917  H     H_    0.818055 0.568033 0.503025 0.000000
H918  H     H_    0.742323 0.618832 0.503603 0.000000
H919  H     H_    0.684266 0.599349 0.481572 0.000000
H920  H     H_    0.711816 0.551989 0.456359 0.000000
Br116 Br    Br    0.604039 0.468838 0.457656 0.000000
C1496 C     C_R   0.585754 0.487145 0.436852 0.000000
C1497 C     C_R   0.554349 0.531467 0.436426 0.000000
C1498 C     C_R   0.524443 0.529681 0.423592 0.000000
C1499 C     C_R   0.523113 0.479716 0.411640 0.000000
C1500 C     C_R   0.557698 0.439999 0.411561 0.000000
C1501 C     C_R   0.592525 0.448672 0.423233 0.000000
C1502 C     C_R   0.625365 0.401093 0.422257 0.000000
N231  N     N_R   0.670331 0.419558 0.431791 0.000000
C1503 C     C_R   0.655414 0.353149 0.440512 0.000000
C1504 C     C_R   0.670679 0.344129 0.455506 0.000000
C1505 C     C_R   0.642263 0.277118 0.464010 0.000000
C1506 C     C_R   0.600956 0.219524 0.457467 0.000000
C1507 C     C_R   0.584848 0.230371 0.442672 0.000000
C1508 C     C_R   0.611448 0.297321 0.434570 0.000000
N232  N     N_R   0.593170 0.323525 0.422013 0.000000
H921  H     H_    0.548322 0.559030 0.447159 0.000000
H922  H     H_    0.498849 0.562455 0.423534 0.000000
H923  H     H_    0.496536 0.472237 0.402117 0.000000
H924  H     H_    0.558004 0.401919 0.402242 0.000000
H925  H     H_    0.701528 0.389377 0.461010 0.000000
H926  H     H_    0.652450 0.268781 0.475895 0.000000
H927  H     H_    0.579928 0.167850 0.464403 0.000000
H928  H     H_    0.549727 0.191236 0.438003 0.000000
Br117 Br    Br    0.777476 0.371604 0.434560 0.000000
C1509 C     C_R   0.765182 0.325319 0.415467 0.000000
C1510 C     C_R   0.748961 0.248789 0.416830 0.000000
C1511 C     C_R   0.749901 0.206158 0.403969 0.000000
C1512 C     C_R   0.762528 0.240371 0.389198 0.000000
C1513 C     C_R   0.774752 0.318299 0.387682 0.000000
C1514 C     C_R   0.777755 0.361750 0.400969 0.000000
C1515 C     C_R   0.801194 0.444276 0.399098 0.000000
N233  N     N_R   0.797890 0.498150 0.410532 0.000000
C1516 C     C_R   0.833264 0.562240 0.403763 0.000000
C1517 C     C_R   0.861086 0.626265 0.411593 0.000000
C1518 C     C_R   0.907371 0.674918 0.403695 0.000000
C1519 C     C_R   0.917682 0.667826 0.387711 0.000000
C1520 C     C_R   0.885783 0.606821 0.379792 0.000000
C1521 C     C_R   0.850545 0.549693 0.388811 0.000000
N234  N     N_R   0.833292 0.475235 0.385342 0.000000
H929  H     H_    0.739129 0.224505 0.428547 0.000000
H930  H     H_    0.740234 0.146331 0.405910 0.000000
H931  H     H_    0.762434 0.206380 0.378916 0.000000
H932  H     H_    0.782976 0.345265 0.376102 0.000000
H933  H     H_    0.853165 0.630578 0.424150 0.000000
H934  H     H_    0.937948 0.714999 0.410093 0.000000
H935  H     H_    0.955039 0.703023 0.381870 0.000000
H936  H     H_    0.892626 0.600267 0.367490 0.000000
Br118 Br    Br    0.384533 0.650974 0.619591 0.000000
C1522 C     C_R   0.312762 0.611673 0.626084 0.000000
C1523 C     C_R   0.288804 0.534991 0.626671 0.000000
C1524 C     C_R   0.235768 0.500154 0.623852 0.000000
C1525 C     C_R   0.204902 0.543610 0.622177 0.000000
C1526 C     C_R   0.228424 0.620955 0.623091 0.000000
C1527 C     C_R   0.283030 0.656036 0.624843 0.000000
C1528 C     C_R   0.302786 0.732847 0.630599 0.000000
N235  N     N_R   0.343138 0.754741 0.641813 0.000000
C1529 C     C_R   0.320241 0.792438 0.652088 0.000000
C1530 C     C_R   0.338728 0.826551 0.665952 0.000000
C1531 C     C_R   0.301219 0.835241 0.677196 0.000000
C1532 C     C_R   0.247144 0.813140 0.673953 0.000000
C1533 C     C_R   0.232463 0.797480 0.658536 0.000000
C1534 C     C_R   0.270871 0.790773 0.647528 0.000000
N236  N     N_R   0.261860 0.762550 0.632960 0.000000
H937  H     H_    0.314127 0.504003 0.628171 0.000000
H938  H     H_    0.219050 0.439943 0.622120 0.000000
H939  H     H_    0.162321 0.517236 0.620486 0.000000
H940  H     H_    0.202124 0.651519 0.622282 0.000000
H941  H     H_    0.380863 0.847052 0.667973 0.000000
H942  H     H_    0.313886 0.859452 0.688545 0.000000
H943  H     H_    0.217687 0.817116 0.683011 0.000000
H944  H     H_    0.191538 0.788077 0.655438 0.000000
Br119 Br    Br    0.514036 0.015461 0.674009 0.000000
C1535 C     C_R   0.556296 0.969322 0.661537 0.000000
C1536 C     C_R   0.596373 0.010912 0.650806 0.000000
C1537 C     C_R   0.616864 0.973633 0.639503 0.000000
C1538 C     C_R   0.593227 0.895428 0.638169 0.000000
C1539 C     C_R   0.555767 0.854536 0.649499 0.000000
C1540 C     C_R   0.541479 0.891598 0.661842 0.000000
C1541 C     C_R   0.502075 0.848898 0.673586 0.000000
N237  N     N_R   0.503093 0.871108 0.689493 0.000000
C1542 C     C_R   0.452817 0.827352 0.694677 0.000000
C1543 C     C_R   0.423542 0.844818 0.706882 0.000000
C1544 C     C_R   0.369297 0.800079 0.709296 0.000000
C1545 C     C_R   0.346880 0.736670 0.700085 0.000000
C1546 C     C_R   0.375828 0.725443 0.686810 0.000000
C1547 C     C_R   0.427118 0.775963 0.683498 0.000000
N238  N     N_R   0.455488 0.790609 0.669244 0.000000
H945  H     H_    0.611002 0.072301 0.651047 0.000000
H946  H     H_    0.648910 0.006885 0.631176 0.000000
H947  H     H_    0.603744 0.864340 0.628639 0.000000
H948  H     H_    0.536513 0.793732 0.648438 0.000000
H949  H     H_    0.441961 0.895108 0.713712 0.000000
H950  H     H_    0.344295 0.813610 0.718548 0.000000
H951  H     H_    0.305064 0.700373 0.702388 0.000000
H952  H     H_    0.357014 0.682889 0.678694 0.000000
Br120 Br    Br    0.435624 0.927430 0.587810 0.000000
C1548 C     C_R   0.443452 0.954845 0.609342 0.000000
C1549 C     C_R   0.441851 0.023565 0.614314 0.000000
C1550 C     C_R   0.443308 0.038626 0.630184 0.000000
C1551 C     C_R   0.437246 0.981129 0.641072 0.000000
C1552 C     C_R   0.444933 0.915865 0.636012 0.000000
C1553 C     C_R   0.453110 0.907259 0.620058 0.000000
C1554 C     C_R   0.479609 0.855805 0.614694 0.000000
N239  N     N_R   0.476373 0.791980 0.623988 0.000000
C1555 C     C_R   0.506676 0.763092 0.614155 0.000000
C1556 C     C_R   0.513892 0.695780 0.615663 0.000000
C1557 C     C_R   0.537387 0.669242 0.602884 0.000000
C1558 C     C_R   0.546716 0.706082 0.588393 0.000000
C1559 C     C_R   0.541594 0.776228 0.587101 0.000000
C1560 C     C_R   0.524476 0.804827 0.600341 0.000000
N240  N     N_R   0.510514 0.866232 0.600092 0.000000
H953  H     H_    0.442755 0.066038 0.605626 0.000000
H954  H     H_    0.449709 0.095157 0.634137 0.000000
H955  H     H_    0.431806 0.990023 0.653524 0.000000
H956  H     H_    0.448816 0.875571 0.644592 0.000000
H957  H     H_    0.497003 0.665170 0.626239 0.000000
H958  H     H_    0.547072 0.618066 0.603311 0.000000
H959  H     H_    0.557601 0.679537 0.578065 0.000000
H960  H     H_    0.547292 0.804352 0.575655 0.000000
Br121 Br    Br    0.485723 0.512976 0.622713 0.000000
C1561 C     C_R   0.527027 0.570914 0.638645 0.000000
C1562 C     C_R   0.580787 0.613441 0.635703 0.000000
C1563 C     C_R   0.606430 0.671854 0.645386 0.000000
C1564 C     C_R   0.576522 0.692434 0.657040 0.000000
C1565 C     C_R   0.522137 0.651050 0.659802 0.000000
C1566 C     C_R   0.497716 0.589503 0.650495 0.000000
C1567 C     C_R   0.439401 0.559048 0.649718 0.000000
N241  N     N_R   0.409472 0.608894 0.650770 0.000000
C1568 C     C_R   0.361127 0.558691 0.656468 0.000000
C1569 C     C_R   0.315621 0.574972 0.661232 0.000000
C1570 C     C_R   0.273054 0.519026 0.669296 0.000000
C1571 C     C_R   0.276138 0.447586 0.672393 0.000000
C1572 C     C_R   0.320148 0.429825 0.666469 0.000000
C1573 C     C_R   0.361674 0.484841 0.657762 0.000000
N242  N     N_R   0.409688 0.479712 0.652137 0.000000
H961  H     H_    0.601569 0.605059 0.625049 0.000000
H962  H     H_    0.648568 0.705691 0.642935 0.000000
H963  H     H_    0.594950 0.745881 0.662813 0.000000
H964  H     H_    0.498142 0.670476 0.668388 0.000000
H965  H     H_    0.312730 0.630326 0.658923 0.000000
H966  H     H_    0.237684 0.531683 0.673474 0.000000
H967  H     H_    0.243157 0.404516 0.679020 0.000000
H968  H     H_    0.321152 0.373218 0.668559 0.000000
Br122 Br    Br    0.218018 0.353535 0.545856 0.000000
C1574 C     C_R   0.162515 0.296739 0.535460 0.000000
C1575 C     C_R   0.116428 0.297980 0.542958 0.000000
C1576 C     C_R   0.079043 0.229468 0.546613 0.000000
C1577 C     C_R   0.079521 0.167256 0.537972 0.000000
C1578 C     C_R   0.118282 0.175931 0.525986 0.000000
C1579 C     C_R   0.165495 0.235547 0.526934 0.000000
C1580 C     C_R   0.216479 0.225440 0.521130 0.000000
N243  N     N_R   0.216316 0.177449 0.508036 0.000000
C1581 C     C_R   0.268786 0.185282 0.506782 0.000000
C1582 C     C_R   0.291268 0.143571 0.497313 0.000000
C1583 C     C_R   0.346066 0.157870 0.497982 0.000000
C1584 C     C_R   0.377886 0.220573 0.506147 0.000000
C1585 C     C_R   0.354050 0.261485 0.515759 0.000000
C1586 C     C_R   0.298808 0.236956 0.517291 0.000000
N244  N     N_R   0.267693 0.260398 0.527919 0.000000
H969  H     H_    0.118181 0.345129 0.550613 0.000000
H970  H     H_    0.053307 0.224938 0.557182 0.000000
H971  H     H_    0.054124 0.110643 0.541941 0.000000
H972  H     H_    0.117309 0.128770 0.518962 0.000000
H973  H     H_    0.266740 0.100662 0.489707 0.000000
H974  H     H_    0.365074 0.125024 0.490874 0.000000
H975  H     H_    0.421367 0.235721 0.505454 0.000000
H976  H     H_    0.377825 0.307264 0.522785 0.000000
Br123 Br    Br    0.149419 0.175203 0.566664 0.000000
C1587 C     C_R   0.198780 0.128989 0.560278 0.000000
C1588 C     C_R   0.187990 0.080278 0.547854 0.000000
C1589 C     C_R   0.216946 0.033027 0.545528 0.000000
C1590 C     C_R   0.254778 0.033388 0.555985 0.000000
C1591 C     C_R   0.267144 0.084932 0.568306 0.000000
C1592 C     C_R   0.239789 0.135525 0.569967 0.000000
C1593 C     C_R   0.252416 0.200420 0.580616 0.000000
N245  N     N_R   0.260846 0.272904 0.573491 0.000000
C1594 C     C_R   0.233565 0.301487 0.584645 0.000000
C1595 C     C_R   0.210098 0.357415 0.583333 0.000000
C1596 C     C_R   0.171428 0.359976 0.594785 0.000000
C1597 C     C_R   0.161341 0.315869 0.608364 0.000000
C1598 C     C_R   0.189994 0.268817 0.610395 0.000000
C1599 C     C_R   0.218940 0.255243 0.597900 0.000000
N246  N     N_R   0.229443 0.190449 0.596414 0.000000
H977  H     H_    0.154330 0.075096 0.540815 0.000000
H978  H     H_    0.207645 0.992237 0.536193 0.000000
H979  H     H_    0.274916 0.993673 0.553751 0.000000
H980  H     H_    0.299632 0.088942 0.575770 0.000000
H981  H     H_    0.219504 0.399742 0.574064 0.000000
H982  H     H_    0.150165 0.398730 0.593588 0.000000
H983  H     H_    0.132553 0.319790 0.617490 0.000000
H984  H     H_    0.189493 0.241440 0.621355 0.000000
Br124 Br    Br    0.526067 0.482528 0.580869 0.000000
C1600 C     C_R   0.514521 0.493227 0.559417 0.000000
C1601 C     C_R   0.545331 0.561300 0.551604 0.000000
C1602 C     C_R   0.539230 0.572691 0.535809 0.000000
C1603 C     C_R   0.503906 0.514097 0.527739 0.000000
C1604 C     C_R   0.472706 0.446546 0.535696 0.000000
C1605 C     C_R   0.474765 0.436857 0.551846 0.000000
C1606 C     C_R   0.443180 0.360654 0.559255 0.000000
N247  N     N_R   0.471876 0.310668 0.561563 0.000000
C1607 C     C_R   0.439848 0.248519 0.554244 0.000000
C1608 C     C_R   0.456827 0.203210 0.544311 0.000000
C1609 C     C_R   0.418824 0.150119 0.535626 0.000000
C1610 C     C_R   0.364719 0.138001 0.538398 0.000000
C1611 C     C_R   0.350241 0.192664 0.546457 0.000000
C1612 C     C_R   0.390222 0.252011 0.552421 0.000000
N248  N     N_R   0.389284 0.322480 0.554860 0.000000
H985  H     H_    0.575346 0.605153 0.557801 0.000000
H986  H     H_    0.564054 0.625334 0.529634 0.000000
H987  H     H_    0.502180 0.520143 0.515063 0.000000
H988  H     H_    0.448758 0.399413 0.528986 0.000000
H989  H     H_    0.498919 0.218086 0.541500 0.000000
H990  H     H_    0.430608 0.118075 0.526433 0.000000
H991  H     H_    0.335340 0.094627 0.531901 0.000000
H992  H     H_    0.310309 0.194423 0.546112 0.000000
Br125 Br    Br    0.948898 0.956112 0.324383 0.000000
C1613 C     C_R   0.955726 0.914469 0.344152 0.000000
C1614 C     C_R   0.942499 0.836616 0.344805 0.000000
C1615 C     C_R   0.942507 0.800046 0.358855 0.000000
C1616 C     C_R   0.952068 0.841704 0.372557 0.000000
C1617 C     C_R   0.965424 0.919576 0.371947 0.000000
C1618 C     C_R   0.969374 0.956653 0.357761 0.000000
C1619 C     C_R   0.989215 0.039502 0.357891 0.000000
N249  N     N_R   0.044748 0.081037 0.358535 0.000000
C1620 C     C_R   0.044742 0.152735 0.358364 0.000000
C1621 C     C_R   0.089306 0.217221 0.358683 0.000000
C1622 C     C_R   0.082923 0.287217 0.357088 0.000000
C1623 C     C_R   0.032842 0.290106 0.354002 0.000000
C1624 C     C_R   0.988648 0.223618 0.353507 0.000000
C1625 C     C_R   0.994147 0.155048 0.356959 0.000000
N250  N     N_R   0.955718 0.083892 0.357630 0.000000
H993  H     H_    0.929366 0.804196 0.334326 0.000000
H994  H     H_    0.929845 0.738395 0.359054 0.000000
H995  H     H_    0.946103 0.814831 0.384091 0.000000
H996  H     H_    0.971897 0.951883 0.382733 0.000000
H997  H     H_    0.128032 0.212656 0.360328 0.000000
H998  H     H_    0.117570 0.339312 0.357515 0.000000
H999  H     H_    0.028001 0.344185 0.351617 0.000000
H1000 H     H_    0.952023 0.226431 0.349799 0.000000
Br126 Br    Br    0.742307 0.269723 0.348210 0.000000
C1626 C     C_R   0.788910 0.240057 0.333994 0.000000
C1627 C     C_R   0.772995 0.221541 0.318797 0.000000
C1628 C     C_R   0.808832 0.212101 0.307263 0.000000
C1629 C     C_R   0.860395 0.220138 0.311072 0.000000
C1630 C     C_R   0.874581 0.231505 0.326576 0.000000
C1631 C     C_R   0.838695 0.240479 0.338364 0.000000
C1632 C     C_R   0.854220 0.251657 0.355034 0.000000
N251  N     N_R   0.865042 0.323092 0.362584 0.000000
C1633 C     C_R   0.888928 0.311171 0.375294 0.000000
C1634 C     C_R   0.913251 0.366224 0.385805 0.000000
C1635 C     C_R   0.946155 0.349789 0.396067 0.000000
C1636 C     C_R   0.955457 0.281651 0.394860 0.000000
C1637 C     C_R   0.926632 0.223873 0.385222 0.000000
C1638 C     C_R   0.891800 0.238943 0.375746 0.000000
N252  N     N_R   0.868339 0.195974 0.363537 0.000000
H1001 H     H_    0.733220 0.218822 0.315717 0.000000
H1002 H     H_    0.797102 0.200842 0.295193 0.000000
H1003 H     H_    0.889316 0.214805 0.301985 0.000000
H1004 H     H_    0.914937 0.236175 0.329016 0.000000
H1005 H     H_    0.909992 0.422257 0.385360 0.000000
H1006 H     H_    0.967742 0.391743 0.404304 0.000000
H1007 H     H_    0.984610 0.273308 0.402024 0.000000
H1008 H     H_    0.934690 0.171310 0.384026 0.000000
Br127 Br    Br    0.076959 0.090689 0.407926 0.000000
C1639 C     C_R   0.100116 0.191697 0.399856 0.000000
C1640 C     C_R   0.072667 0.240361 0.403431 0.000000
C1641 C     C_R   0.093322 0.315722 0.397914 0.000000
C1642 C     C_R   0.143771 0.342930 0.390162 0.000000
C1643 C     C_R   0.172127 0.295275 0.387789 0.000000
C1644 C     C_R   0.148959 0.219409 0.391831 0.000000
C1645 C     C_R   0.181617 0.173702 0.389007 0.000000
N253  N     N_R   0.233028 0.201985 0.395024 0.000000
C1646 C     C_R   0.262063 0.185916 0.383005 0.000000
C1647 C     C_R   0.315357 0.223978 0.379337 0.000000
C1648 C     C_R   0.337438 0.202535 0.365815 0.000000
C1649 C     C_R   0.306011 0.143397 0.356786 0.000000
C1650 C     C_R   0.250795 0.116030 0.359097 0.000000
C1651 C     C_R   0.229868 0.141468 0.371948 0.000000
N254  N     N_R   0.177906 0.133018 0.374761 0.000000
H1009 H     H_    0.037180 0.220458 0.411385 0.000000
H1010 H     H_    0.072336 0.354782 0.400884 0.000000
H1011 H     H_    0.163717 0.401445 0.386452 0.000000
H1012 H     H_    0.213199 0.317811 0.382901 0.000000
H1013 H     H_    0.338875 0.269276 0.386630 0.000000
H1014 H     H_    0.380226 0.227931 0.362770 0.000000
H1015 H     H_    0.325181 0.121239 0.347579 0.000000
H1016 H     H_    0.225002 0.077499 0.351078 0.000000
Br128 Br    Br    0.228613 0.835585 0.361474 0.000000
C1652 C     C_R   0.231037 0.906153 0.345546 0.000000
C1653 C     C_R   0.281151 0.951384 0.340086 0.000000
C1654 C     C_R   0.286804 0.006526 0.329052 0.000000
C1655 C     C_R   0.242017 0.013773 0.322639 0.000000
C1656 C     C_R   0.191503 0.971368 0.328647 0.000000
C1657 C     C_R   0.186303 0.919820 0.340700 0.000000
C1658 C     C_R   0.136896 0.895460 0.350526 0.000000
N255  N     N_R   0.114219 0.820956 0.357213 0.000000
C1659 C     C_R   0.083498 0.833968 0.369297 0.000000
C1660 C     C_R   0.058288 0.784115 0.381562 0.000000
C1661 C     C_R   0.040392 0.813995 0.394851 0.000000
C1662 C     C_R   0.048766 0.891870 0.395749 0.000000
C1663 C     C_R   0.072714 0.940579 0.382913 0.000000
C1664 C     C_R   0.087600 0.909847 0.369633 0.000000
N256  N     N_R   0.117823 0.950783 0.357193 0.000000
H1017 H     H_    0.316177 0.946892 0.345197 0.000000
H1018 H     H_    0.327027 0.046028 0.326463 0.000000
H1019 H     H_    0.245842 0.057660 0.314121 0.000000
H1020 H     H_    0.156585 0.982517 0.324757 0.000000
H1021 H     H_    0.056302 0.725066 0.381393 0.000000
H1022 H     H_    0.022685 0.777169 0.405028 0.000000
H1023 H     H_    0.035806 0.913971 0.406452 0.000000
H1024 H     H_    0.079714 0.001027 0.382994 0.000000
Br129 Br    Br    0.153235 0.505411 0.104738 0.000000
C1665 C     C_R   0.120841 0.542166 0.089124 0.000000
C1666 C     C_R   0.083385 0.497745 0.079057 0.000000
C1667 C     C_R   0.072720 0.530547 0.065535 0.000000
C1668 C     C_R   0.097731 0.607717 0.062564 0.000000
C1669 C     C_R   0.132990 0.651204 0.073153 0.000000
C1670 C     C_R   0.143670 0.618366 0.086565 0.000000
C1671 C     C_R   0.179332 0.665784 0.097991 0.000000
N257  N     N_R   0.163430 0.661261 0.114682 0.000000
C1672 C     C_R   0.185416 0.735344 0.117775 0.000000
C1673 C     C_R   0.163910 0.768152 0.129344 0.000000
C1674 C     C_R   0.176042 0.845620 0.128088 0.000000
C1675 C     C_R   0.216546 0.888899 0.117356 0.000000
C1676 C     C_R   0.236960 0.855640 0.105346 0.000000
C1677 C     C_R   0.217307 0.778246 0.105085 0.000000
N258  N     N_R   0.217091 0.736561 0.092120 0.000000
H1025 H     H_    0.060567 0.438399 0.081858 0.000000
H1026 H     H_    0.043443 0.497259 0.057595 0.000000
H1027 H     H_    0.088944 0.634490 0.052179 0.000000
H1028 H     H_    0.151354 0.711782 0.071081 0.000000
H1029 H     H_    0.133078 0.733753 0.137918 0.000000
H1030 H     H_    0.155385 0.873233 0.136012 0.000000
H1031 H     H_    0.229856 0.949615 0.118240 0.000000
H1032 H     H_    0.264533 0.888585 0.096017 0.000000
Br130 Br    Br    0.763090 0.099533 0.512944 0.000000
C1678 C     C_R   0.730901 0.993745 0.517360 0.000000
C1679 C     C_R   0.677497 0.958586 0.513969 0.000000
C1680 C     C_R   0.648835 0.885305 0.519583 0.000000
C1681 C     C_R   0.672947 0.849023 0.529309 0.000000
C1682 C     C_R   0.726409 0.884305 0.532647 0.000000
C1683 C     C_R   0.757194 0.955335 0.525927 0.000000
C1684 C     C_R   0.814815 0.991209 0.529667 0.000000
N259  N     N_R   0.858020 0.038399 0.519120 0.000000
C1685 C     C_R   0.896455 0.061265 0.529395 0.000000
C1686 C     C_R   0.939287 0.126025 0.527523 0.000000
C1687 C     C_R   0.964319 0.153163 0.541015 0.000000
C1688 C     C_R   0.957884 0.106604 0.554412 0.000000
C1689 C     C_R   0.914749 0.040298 0.555976 0.000000
C1690 C     C_R   0.881185 0.026201 0.544006 0.000000
N260  N     N_R   0.829681 0.981486 0.545048 0.000000
H1033 H     H_    0.657624 0.989703 0.507287 0.000000
H1034 H     H_    0.606994 0.857701 0.516934 0.000000
H1035 H     H_    0.649992 0.792581 0.534273 0.000000
H1036 H     H_    0.743624 0.855148 0.540558 0.000000
H1037 H     H_    0.948117 0.160118 0.516696 0.000000
H1038 H     H_    0.988970 0.211651 0.540772 0.000000
H1039 H     H_    0.982854 0.124882 0.564278 0.000000
H1040 H     H_    0.905619 0.005193 0.566599 0.000000
Br131 Br    Br    0.994196 0.924136 0.630840 0.000000
C1691 C     C_R   0.016640 0.975517 0.610872 0.000000
C1692 C     C_R   0.000686 0.932241 0.597895 0.000000
C1693 C     C_R   0.012502 0.963430 0.582828 0.000000
C1694 C     C_R   0.039528 0.040510 0.580872 0.000000
C1695 C     C_R   0.057793 0.084464 0.593911 0.000000
C1696 C     C_R   0.047202 0.052092 0.608899 0.000000
C1697 C     C_R   0.062899 0.101494 0.622366 0.000000
N261  N     N_R   0.025200 0.125418 0.631179 0.000000
C1698 C     C_R   0.056187 0.168039 0.642154 0.000000
C1699 C     C_R   0.037263 0.192411 0.655798 0.000000
C1700 C     C_R   0.072312 0.218350 0.667759 0.000000
C1701 C     C_R   0.126841 0.232403 0.664741 0.000000
C1702 C     C_R   0.145193 0.211092 0.650530 0.000000
C1703 C     C_R   0.108475 0.170458 0.640108 0.000000
N262  N     N_R   0.116071 0.129524 0.627347 0.000000
H1041 H     H_    0.978222 0.873090 0.599946 0.000000
H1042 H     H_    0.999595 0.928094 0.572632 0.000000
H1043 H     H_    0.046414 0.065400 0.569079 0.000000
H1044 H     H_    0.079197 0.145389 0.592653 0.000000
H1045 H     H_    0.994823 0.183678 0.657772 0.000000
H1046 H     H_    0.057691 0.231633 0.679196 0.000000
H1047 H     H_    0.155119 0.259569 0.673564 0.000000
H1048 H     H_    0.187148 0.225768 0.647971 0.000000
Br132 Br    Br    0.988391 0.553239 0.089873 0.000000
C1704 C     C_R   0.033035 0.646924 0.098358 0.000000
C1705 C     C_R   0.056909 0.710565 0.088469 0.000000
C1706 C     C_R   0.079454 0.782164 0.094684 0.000000
C1707 C     C_R   0.072443 0.791364 0.110613 0.000000
C1708 C     C_R   0.045790 0.730092 0.120301 0.000000
C1709 C     C_R   0.026799 0.658264 0.114274 0.000000
C1710 C     C_R   0.998056 0.598998 0.125591 0.000000
N263  N     N_R   0.943213 0.585703 0.130336 0.000000
C1711 C     C_R   0.943744 0.569649 0.145963 0.000000
C1712 C     C_R   0.901846 0.554148 0.157192 0.000000
C1713 C     C_R   0.913035 0.564098 0.172967 0.000000
C1714 C     C_R   0.966168 0.596130 0.176884 0.000000
C1715 C     C_R   0.007411 0.607022 0.165316 0.000000
C1716 C     C_R   0.994834 0.580767 0.150353 0.000000
N264  N     N_R   0.029722 0.590371 0.137571 0.000000
H1049 H     H_    0.054457 0.705501 0.075788 0.000000
H1050 H     H_    0.098386 0.831794 0.087032 0.000000
H1051 H     H_    0.085201 0.846450 0.115839 0.000000
H1052 H     H_    0.039078 0.738878 0.132785 0.000000
H1053 H     H_    0.861526 0.534638 0.153807 0.000000
H1054 H     H_    0.880484 0.553959 0.181998 0.000000
H1055 H     H_    0.975391 0.614339 0.188867 0.000000
H1056 H     H_    0.047527 0.643463 0.167587 0.000000
Br133 Br    Br    0.986825 0.571029 0.397038 0.000000
C1717 C     C_R   0.027097 0.520064 0.386042 0.000000
C1718 C     C_R   0.067290 0.505730 0.393423 0.000000
C1719 C     C_R   0.108637 0.494896 0.384633 0.000000
C1720 C     C_R   0.104499 0.483164 0.368666 0.000000
C1721 C     C_R   0.060244 0.488519 0.361592 0.000000
C1722 C     C_R   0.022460 0.509954 0.370151 0.000000
C1723 C     C_R   0.998003 0.555133 0.361613 0.000000
N265  N     N_R   0.945312 0.528133 0.356051 0.000000
C1724 C     C_R   0.951109 0.583007 0.344723 0.000000
C1725 C     C_R   0.914175 0.588842 0.334490 0.000000
C1726 C     C_R   0.928534 0.649565 0.323661 0.000000
C1727 C     C_R   0.977478 0.708496 0.324408 0.000000
C1728 C     C_R   0.011903 0.705208 0.335806 0.000000
C1729 C     C_R   0.000381 0.640001 0.344756 0.000000
N266  N     N_R   0.032545 0.625172 0.355049 0.000000
H1057 H     H_    0.069788 0.511296 0.405933 0.000000
H1058 H     H_    0.144773 0.499323 0.390426 0.000000
H1059 H     H_    0.137131 0.474182 0.361653 0.000000
H1060 H     H_    0.058054 0.485796 0.348950 0.000000
H1061 H     H_    0.874935 0.548333 0.334711 0.000000
H1062 H     H_    0.900222 0.653202 0.315199 0.000000
H1063 H     H_    0.987211 0.758921 0.316762 0.000000
H1064 H     H_    0.044748 0.754018 0.338613 0.000000
Br134 Br    Br    0.013404 0.249888 0.867741 0.000000
C1730 C     C_R   0.019156 0.178610 0.883066 0.000000
C1731 C     C_R   0.005218 0.181378 0.898788 0.000000
C1732 C     C_R   0.027620 0.149540 0.909855 0.000000
C1733 C     C_R   0.057640 0.105015 0.905222 0.000000
C1734 C     C_R   0.064789 0.093675 0.889469 0.000000
C1735 C     C_R   0.047064 0.132564 0.878591 0.000000
C1736 C     C_R   0.067604 0.136989 0.862612 0.000000
N267  N     N_R   0.035993 0.093142 0.850563 0.000000
C1737 C     C_R   0.075931 0.106198 0.839000 0.000000
C1738 C     C_R   0.070569 0.086975 0.823442 0.000000
C1739 C     C_R   0.116526 0.094536 0.813932 0.000000
C1740 C     C_R   0.166716 0.119791 0.820337 0.000000
C1741 C     C_R   0.171747 0.146732 0.835637 0.000000
C1742 C     C_R   0.126383 0.147668 0.844193 0.000000
N268  N     N_R   0.123562 0.175573 0.858901 0.000000
H1065 H     H_    0.978889 0.210457 0.902590 0.000000
H1066 H     H_    0.019592 0.156498 0.922237 0.000000
H1067 H     H_    0.074036 0.077371 0.913831 0.000000
H1068 H     H_    0.087020 0.058100 0.885556 0.000000
H1069 H     H_    0.032187 0.072814 0.818560 0.000000
H1070 H     H_    0.113138 0.078775 0.801612 0.000000
H1071 H     H_    0.202266 0.120929 0.813188 0.000000
H1072 H     H_    0.210002 0.164093 0.840870 0.000000
Br135 Br    Br    0.813970 0.033191 0.311518 0.000000
C1743 C     C_R   0.824797 0.938613 0.314579 0.000000
C1744 C     C_R   0.846225 0.911085 0.301702 0.000000
C1745 C     C_R   0.852866 0.841273 0.302765 0.000000
C1746 C     C_R   0.835489 0.797502 0.316478 0.000000
C1747 C     C_R   0.810851 0.822751 0.329094 0.000000
C1748 C     C_R   0.808530 0.895805 0.328712 0.000000
C1749 C     C_R   0.777557 0.920741 0.341239 0.000000
N269  N     N_R   0.801102 0.992388 0.348851 0.000000
C1750 C     C_R   0.759055 0.016728 0.348801 0.000000
C1751 C     C_R   0.754674 0.079821 0.355433 0.000000
C1752 C     C_R   0.708943 0.094903 0.352718 0.000000
C1753 C     C_R   0.675039 0.056676 0.341325 0.000000
C1754 C     C_R   0.675027 0.986451 0.337170 0.000000
C1755 C     C_R   0.715257 0.965629 0.342393 0.000000
N270  N     N_R   0.721521 0.899613 0.339361 0.000000
H1073 H     H_    0.858377 0.945010 0.290799 0.000000
H1074 H     H_    0.870844 0.820326 0.292808 0.000000
H1075 H     H_    0.840204 0.742343 0.316982 0.000000
H1076 H     H_    0.792528 0.784713 0.339102 0.000000
H1077 H     H_    0.780865 0.109314 0.364226 0.000000
H1078 H     H_    0.699354 0.135060 0.360050 0.000000
H1079 H     H_    0.645240 0.076568 0.336824 0.000000
H1080 H     H_    0.646433 0.951386 0.329468 0.000000
Br136 Br    Br    0.699044 0.810457 0.371423 0.000000
C1756 C     C_R   0.684255 0.898185 0.378403 0.000000
C1757 C     C_R   0.723966 0.946710 0.386216 0.000000
C1758 C     C_R   0.726391 0.019530 0.389022 0.000000
C1759 C     C_R   0.682550 0.038928 0.386571 0.000000
C1760 C     C_R   0.637511 0.985455 0.381332 0.000000
C1761 C     C_R   0.640204 0.918191 0.375991 0.000000
C1762 C     C_R   0.592263 0.866047 0.370676 0.000000
N271  N     N_R   0.589924 0.826152 0.356659 0.000000
C1763 C     C_R   0.539213 0.776522 0.358157 0.000000
C1764 C     C_R   0.518507 0.713800 0.348867 0.000000
C1765 C     C_R   0.468299 0.661947 0.353315 0.000000
C1766 C     C_R   0.441274 0.674092 0.366932 0.000000
C1767 C     C_R   0.466551 0.730499 0.377183 0.000000
C1768 C     C_R   0.513873 0.785451 0.372263 0.000000
N272  N     N_R   0.545483 0.844872 0.380580 0.000000
H1081 H     H_    0.753995 0.925796 0.388805 0.000000
H1082 H     H_    0.763325 0.062447 0.392035 0.000000
H1083 H     H_    0.683641 0.095637 0.388636 0.000000
H1084 H     H_    0.600748 0.997079 0.380522 0.000000
H1085 H     H_    0.540873 0.705581 0.338424 0.000000
H1086 H     H_    0.449659 0.612818 0.346157 0.000000
H1087 H     H_    0.400793 0.636892 0.370138 0.000000
H1088 H     H_    0.450948 0.726491 0.388939 0.000000
Br137 Br    Br    0.557823 0.645819 0.307950 0.000000
C1769 C     C_R   0.632871 0.677695 0.301812 0.000000
C1770 C     C_R   0.651231 0.714319 0.287279 0.000000
C1771 C     C_R   0.703387 0.727143 0.281432 0.000000
C1772 C     C_R   0.737304 0.703863 0.290255 0.000000
C1773 C     C_R   0.719938 0.671928 0.305219 0.000000
C1774 C     C_R   0.667841 0.659162 0.311201 0.000000
C1775 C     C_R   0.652627 0.640086 0.328103 0.000000
N273  N     N_R   0.640022 0.693327 0.337971 0.000000
C1776 C     C_R   0.624430 0.650742 0.351597 0.000000
C1777 C     C_R   0.600451 0.663878 0.365617 0.000000
C1778 C     C_R   0.580303 0.605596 0.376706 0.000000
C1779 C     C_R   0.596147 0.543066 0.375548 0.000000
C1780 C     C_R   0.627246 0.536954 0.362773 0.000000
C1781 C     C_R   0.631844 0.582669 0.350174 0.000000
N274  N     N_R   0.646777 0.568812 0.335593 0.000000
H1089 H     H_    0.623591 0.728992 0.280034 0.000000
H1090 H     H_    0.717141 0.753631 0.269809 0.000000
H1091 H     H_    0.778013 0.712465 0.285620 0.000000
H1092 H     H_    0.747657 0.657623 0.312241 0.000000
H1093 H     H_    0.596760 0.716201 0.368783 0.000000
H1094 H     H_    0.557611 0.613201 0.387151 0.000000
H1095 H     H_    0.586707 0.500185 0.384629 0.000000
H1096 H     H_    0.646680 0.496165 0.362397 0.000000
Br138 Br    Br    0.542600 0.952454 0.338201 0.000000
C1782 C     C_R   0.493773 0.854355 0.334462 0.000000
C1783 C     C_R   0.448755 0.826073 0.344709 0.000000
C1784 C     C_R   0.408291 0.759723 0.341433 0.000000
C1785 C     C_R   0.412519 0.723415 0.327771 0.000000
C1786 C     C_R   0.459415 0.747427 0.318092 0.000000
C1787 C     C_R   0.501052 0.812176 0.321655 0.000000
C1788 C     C_R   0.549842 0.836017 0.311138 0.000000
N275  N     N_R   0.548845 0.858360 0.295303 0.000000
C1789 C     C_R   0.601292 0.873126 0.290329 0.000000
C1790 C     C_R   0.626198 0.902988 0.275919 0.000000
C1791 C     C_R   0.681617 0.921508 0.273684 0.000000
C1792 C     C_R   0.711390 0.909783 0.285806 0.000000
C1793 C     C_R   0.686005 0.879074 0.300319 0.000000
C1794 C     C_R   0.631021 0.861211 0.302296 0.000000
N276  N     N_R   0.600152 0.835322 0.315764 0.000000
H1097 H     H_    0.444975 0.855496 0.355321 0.000000
H1098 H     H_    0.371878 0.737480 0.348969 0.000000
H1099 H     H_    0.376424 0.681119 0.324209 0.000000
H1100 H     H_    0.462579 0.719084 0.307150 0.000000
H1101 H     H_    0.603490 0.911020 0.266473 0.000000
H1102 H     H_    0.701864 0.945036 0.262353 0.000000
H1103 H     H_    0.754520 0.923765 0.283782 0.000000
H1104 H     H_    0.708659 0.868284 0.309685 0.000000
Br139 Br    Br    0.769954 0.879415 0.904956 0.000000
C1795 C     C_R   0.841970 0.890245 0.902225 0.000000
C1796 C     C_R   0.857875 0.836973 0.909816 0.000000
C1797 C     C_R   0.897204 0.813405 0.902656 0.000000
C1798 C     C_R   0.921118 0.845819 0.888399 0.000000
C1799 C     C_R   0.909881 0.906600 0.882188 0.000000
C1800 C     C_R   0.871232 0.930929 0.889228 0.000000
C1801 C     C_R   0.862985 0.998103 0.882201 0.000000
N277  N     N_R   0.834727 0.042599 0.890176 0.000000
C1802 C     C_R   0.846322 0.100052 0.879255 0.000000
C1803 C     C_R   0.824293 0.155766 0.878978 0.000000
C1804 C     C_R   0.839272 0.206937 0.866344 0.000000
C1805 C     C_R   0.883238 0.211139 0.856207 0.000000
C1806 C     C_R   0.901137 0.150078 0.855459 0.000000
C1807 C     C_R   0.879686 0.093208 0.866615 0.000000
N278  N     N_R   0.891022 0.028789 0.867437 0.000000
H1105 H     H_    0.833898 0.805168 0.920040 0.000000
H1106 H     H_    0.905935 0.765490 0.907515 0.000000
H1107 H     H_    0.948548 0.823377 0.882118 0.000000
H1108 H     H_    0.930317 0.934378 0.871478 0.000000
H1109 H     H_    0.792612 0.155390 0.887385 0.000000
H1110 H     H_    0.817731 0.245837 0.864972 0.000000
H1111 H     H_    0.900933 0.259346 0.848108 0.000000
H1112 H     H_    0.931897 0.147937 0.846675 0.000000
Br140 Br    Br    0.139136 0.731839 0.822546 0.000000
C1808 C     C_R   0.108773 0.623607 0.822364 0.000000
C1809 C     C_R   0.114579 0.586065 0.808730 0.000000
C1810 C     C_R   0.094178 0.507387 0.808555 0.000000
C1811 C     C_R   0.069874 0.466693 0.822210 0.000000
C1812 C     C_R   0.066156 0.504440 0.836110 0.000000
C1813 C     C_R   0.082295 0.583225 0.835895 0.000000
C1814 C     C_R   0.074271 0.625217 0.849906 0.000000
N279  N     N_R   0.114702 0.652634 0.860788 0.000000
C1815 C     C_R   0.094202 0.698907 0.869265 0.000000
C1816 C     C_R   0.119808 0.753623 0.879634 0.000000
C1817 C     C_R   0.089178 0.786463 0.888916 0.000000
C1818 C     C_R   0.034380 0.766609 0.887055 0.000000
C1819 C     C_R   0.011384 0.721979 0.874500 0.000000
C1820 C     C_R   0.043304 0.691853 0.865310 0.000000
N280  N     N_R   0.028522 0.647983 0.852638 0.000000
H1113 H     H_    0.135121 0.618533 0.798155 0.000000
H1114 H     H_    0.098106 0.477767 0.797830 0.000000
H1115 H     H_    0.052704 0.404798 0.821880 0.000000
H1116 H     H_    0.047824 0.472063 0.846894 0.000000
H1117 H     H_    0.162385 0.770563 0.880722 0.000000
H1118 H     H_    0.108239 0.828008 0.897666 0.000000
H1119 H     H_    0.011070 0.791160 0.894757 0.000000
H1120 H     H_    0.969527 0.710264 0.872240 0.000000
Br141 Br    Br    0.121990 0.359646 0.840322 0.000000
C1821 C     C_R   0.191541 0.431692 0.833894 0.000000
C1822 C     C_R   0.207838 0.441892 0.818005 0.000000
C1823 C     C_R   0.261530 0.480638 0.813466 0.000000
C1824 C     C_R   0.298259 0.511099 0.824826 0.000000
C1825 C     C_R   0.280750 0.507307 0.840611 0.000000
C1826 C     C_R   0.227379 0.466701 0.845195 0.000000
C1827 C     C_R   0.207396 0.458380 0.861803 0.000000
N281  N     N_R   0.189205 0.514328 0.869243 0.000000
C1828 C     C_R   0.160367 0.471922 0.881704 0.000000
C1829 C     C_R   0.130543 0.494988 0.892714 0.000000
C1830 C     C_R   0.099777 0.442866 0.904132 0.000000
C1831 C     C_R   0.095848 0.366861 0.903174 0.000000
C1832 C     C_R   0.125327 0.343592 0.891515 0.000000
C1833 C     C_R   0.160453 0.398322 0.881754 0.000000
N282  N     N_R   0.191816 0.386095 0.869844 0.000000
H1121 H     H_    0.179544 0.414778 0.809182 0.000000
H1122 H     H_    0.274982 0.486022 0.801037 0.000000
H1123 H     H_    0.340239 0.541451 0.821228 0.000000
H1124 H     H_    0.308874 0.537056 0.849203 0.000000
H1125 H     H_    0.130050 0.551256 0.891764 0.000000
H1126 H     H_    0.075650 0.459750 0.913089 0.000000
H1127 H     H_    0.068927 0.325389 0.911516 0.000000
H1128 H     H_    0.121271 0.284280 0.889984 0.000000
Br142 Br    Br    0.109511 0.949636 0.649969 0.000000
C1834 C     C_R   0.178377 0.948198 0.654380 0.000000
C1835 C     C_R   0.192724 0.957463 0.669902 0.000000
C1836 C     C_R   0.246017 0.975748 0.673277 0.000000
C1837 C     C_R   0.283622 0.976323 0.661300 0.000000
C1838 C     C_R   0.267318 0.955037 0.646244 0.000000
C1839 C     C_R   0.215333 0.945513 0.642343 0.000000
C1840 C     C_R   0.202114 0.942062 0.625513 0.000000
N283  N     N_R   0.196572 0.877407 0.616032 0.000000
C1841 C     C_R   0.186146 0.903586 0.602067 0.000000
C1842 C     C_R   0.178291 0.866655 0.587927 0.000000
C1843 C     C_R   0.160508 0.899024 0.575639 0.000000
C1844 C     C_R   0.146880 0.963725 0.578179 0.000000
C1845 C     C_R   0.160531 0.004786 0.591846 0.000000
C1846 C     C_R   0.182407 0.975038 0.603319 0.000000
N284  N     N_R   0.194778 0.004583 0.617631 0.000000
H1129 H     H_    0.163083 0.958180 0.679210 0.000000
H1130 H     H_    0.258104 0.988402 0.685281 0.000000
H1131 H     H_    0.325370 0.988718 0.663912 0.000000
H1132 H     H_    0.296651 0.950659 0.637252 0.000000
H1133 H     H_    0.179977 0.810585 0.586779 0.000000
H1134 H     H_    0.151285 0.869033 0.564654 0.000000
H1135 H     H_    0.125580 0.981930 0.569380 0.000000
H1136 H     H_    0.152013 0.056756 0.593769 0.000000
Br143 Br    Br    0.076665 0.802324 0.627277 0.000000
C1847 C     C_R   0.066847 0.756154 0.607393 0.000000
C1848 C     C_R   0.061688 0.798185 0.594667 0.000000
C1849 C     C_R   0.046416 0.763445 0.580578 0.000000
C1850 C     C_R   0.029074 0.684865 0.580203 0.000000
C1851 C     C_R   0.035017 0.642572 0.592885 0.000000
C1852 C     C_R   0.054887 0.678582 0.606459 0.000000
C1853 C     C_R   0.065788 0.638357 0.619838 0.000000
N285  N     N_R   0.116565 0.668224 0.626291 0.000000
C1854 C     C_R   0.107120 0.623618 0.639670 0.000000
C1855 C     C_R   0.141306 0.627977 0.651586 0.000000
C1856 C     C_R   0.120331 0.588152 0.665692 0.000000
C1857 C     C_R   0.066430 0.541614 0.667409 0.000000
C1858 C     C_R   0.034354 0.528806 0.654587 0.000000
C1859 C     C_R   0.055263 0.570911 0.640838 0.000000
N286  N     N_R   0.026874 0.575807 0.628336 0.000000
H1137 H     H_    0.068620 0.858213 0.596019 0.000000
H1138 H     H_    0.041991 0.796462 0.570505 0.000000
H1139 H     H_    0.010419 0.656756 0.569975 0.000000
H1140 H     H_    0.025559 0.582218 0.591927 0.000000
H1141 H     H_    0.183229 0.661414 0.650244 0.000000
H1142 H     H_    0.146070 0.593725 0.675475 0.000000
H1143 H     H_    0.050037 0.512450 0.678652 0.000000
H1144 H     H_    0.993130 0.489601 0.655719 0.000000
Br144 Br    Br    0.676395 0.933253 0.604929 0.000000
C1860 C     C_R   0.659398 0.831329 0.597683 0.000000
C1861 C     C_R   0.659372 0.770317 0.606903 0.000000
C1862 C     C_R   0.661906 0.705018 0.599665 0.000000
C1863 C     C_R   0.663608 0.700483 0.583352 0.000000
C1864 C     C_R   0.662865 0.761665 0.574299 0.000000
C1865 C     C_R   0.657326 0.824551 0.581756 0.000000
C1866 C     C_R   0.665007 0.893759 0.573114 0.000000
N287  N     N_R   0.625616 0.928434 0.570904 0.000000
C1867 C     C_R   0.657127 0.992470 0.562912 0.000000
C1868 C     C_R   0.640010 0.042157 0.554755 0.000000
C1869 C     C_R   0.678487 0.103413 0.546771 0.000000
C1870 C     C_R   0.732715 0.117940 0.548610 0.000000
C1871 C     C_R   0.749162 0.063532 0.555537 0.000000
C1872 C     C_R   0.710514 0.999060 0.561966 0.000000
N288  N     N_R   0.717706 0.936719 0.568147 0.000000
H1145 H     H_    0.660393 0.775034 0.619554 0.000000
H1146 H     H_    0.664318 0.658188 0.606716 0.000000
H1147 H     H_    0.665810 0.649481 0.577675 0.000000
H1148 H     H_    0.665685 0.759744 0.561506 0.000000
H1149 H     H_    0.597860 0.030314 0.553714 0.000000
H1150 H     H_    0.666788 0.142348 0.539603 0.000000
H1151 H     H_    0.762597 0.169619 0.543586 0.000000
H1152 H     H_    0.791107 0.071842 0.555525 0.000000

loop_
_geom_bond_atom_site_label_1
_geom_bond_atom_site_label_2
_geom_bond_distance
_geom_bond_site_symmetry_2
_ccdc_geom_bond_type
Zn1   N1    2.069 .      S
Zn1   N4    2.165 .      S
Zn1   N82   2.216 .      S
Zn1   N177  2.218 .      S
Zn2   N5    2.303 .      S
Zn2   N8    2.322 .      S
Zn2   N10   2.250 .      S
Zn2   N179  2.295 .      S
Zn3   N3    2.234 1_565  S
Zn3   N7    2.240 .      S
Zn3   N95   2.170 .      S
Zn3   N237  2.270 .      S
Zn4   N26   2.233 .      S
Zn4   N46   2.260 .      S
Zn4   N147  2.315 .      S
Zn4   N169  2.175 .      S
Zn5   N12   2.357 .      S
Zn5   N13   2.266 .      S
Zn5   N39   2.321 .      S
Zn5   N54   2.320 .      S
Zn6   N15   2.217 .      S
Zn6   N17   2.256 .      S
Zn6   N60   2.257 .      S
Zn6   N253  2.239 .      S
Zn7   N11   2.365 .      S
Zn7   N19   2.280 1_545  S
Zn7   N65   2.363 .      S
Zn7   N277  2.393 .      S
Zn8   N18   2.317 .      S
Zn8   N22   2.280 .      S
Zn8   N97   2.262 .      S
Zn8   N174  2.337 .      S
Zn9   N23   2.267 .      S
Zn9   N129  2.308 .      S
Zn9   N194  2.278 .      S
Zn9   N258  2.330 .      S
Zn10  N25   2.188 .      S
Zn10  N89   2.342 1_565  S
Zn10  N102  2.248 .      S
Zn10  N275  2.228 .      S
Zn11  N27   2.235 .      S
Zn11  N85   2.321 .      S
Zn11  N192  2.221 .      S
Zn11  N247  2.286 .      S
Zn12  N14   2.202 .      S
Zn12  N29   2.177 .      S
Zn12  N70   2.173 .      S
Zn12  N214  2.181 .      S
Zn13  N16   2.254 .      S
Zn13  N31   2.268 .      S
Zn13  N73   2.316 .      S
Zn13  N232  2.293 .      S
Zn14  N20   2.260 .      S
Zn14  N30   2.191 .      S
Zn14  N112  2.250 .      S
Zn14  N203  2.273 .      S
Zn15  N33   2.367 .      S
Zn15  N36   2.336 .      S
Zn15  N175  2.284 .      S
Zn15  N286  2.228 1_655  S
Zn16  N38   2.306 .      S
Zn16  N40   2.354 .      S
Zn16  N187  2.318 .      S
Zn16  N280  2.224 1_655  S
Zn17  N42   2.261 .      S
Zn17  N44   2.406 .      S
Zn17  N45   2.178 .      S
Zn17  N104  2.326 .      S
Zn18  N48   2.193 .      S
Zn18  N50   2.277 .      S
Zn18  N51   2.287 .      S
Zn18  N229  2.215 .      S
Zn19  N53   2.279 .      S
Zn19  N55   2.321 .      S
Zn19  N57   2.318 .      S
Zn19  N226  2.159 1_556  S
Zn20  N59   2.230 .      S
Zn20  N61   2.257 .      S
Zn20  N64   2.227 1_545  S
Zn20  N243  2.280 .      S
Zn21  N56   2.311 .      S
Zn21  N66   2.350 1_565  S
Zn21  N152  2.363 1_565  S
Zn21  N162  2.228 1_566  S
Zn22  N67   2.150 .      S
Zn22  N69   2.202 .      S
Zn22  N71   2.203 .      S
Zn22  N108  2.237 .      S
Zn23  N74   2.206 .      S
Zn23  N75   2.099 .      S
Zn23  N77   2.168 .      S
Zn23  N274  2.249 .      S
Zn24  N79   2.169 .      S
Zn24  N120  2.154 .      S
Zn24  N145  2.067 .      S
Zn24  N172  2.258 .      S
Zn25  N81   2.246 .      S
Zn25  N84   2.244 .      S
Zn25  N86   2.245 .      S
Zn25  N242  2.324 .      S
Zn26  N2    2.168 .      S
Zn26  N68   2.300 .      S
Zn26  N87   2.356 .      S
Zn26  N181  2.299 .      S
Zn27  N76   2.141 .      S
Zn27  N90   2.283 .      S
Zn27  N134  2.243 .      S
Zn27  N141  2.171 .      S
Zn28  N6    2.254 .      S
Zn28  N91   2.238 .      S
Zn28  N94   2.208 1_545  S
Zn28  N186  2.258 .      S
Zn29  N88   2.315 .      S
Zn29  N93   2.239 .      S
Zn29  N96   2.225 .      S
Zn29  N110  2.207 .      S
Zn30  N52   2.365 .      S
Zn30  N63   2.248 .      S
Zn30  N98   2.304 .      S
Zn30  N208  2.239 .      S
Zn31  N43   2.342 .      S
Zn31  N99   2.240 .      S
Zn31  N101  2.222 .      S
Zn31  N136  2.195 .      S
Zn32  N103  2.358 .      S
Zn32  N124  2.275 .      S
Zn32  N137  2.336 .      S
Zn32  N143  2.171 .      S
Zn33  N105  2.261 .      S
Zn33  N107  2.208 .      S
Zn33  N109  2.130 .      S
Zn33  N111  2.198 .      S
Zn34  N113  2.266 .      S
Zn34  N115  2.277 .      S
Zn34  N117  2.282 .      S
Zn34  N119  2.286 .      S
Zn35  N121  2.185 .      S
Zn35  N123  2.329 .      S
Zn35  N125  2.313 .      S
Zn35  N128  2.328 .      S
Zn36  N114  2.308 .      S
Zn36  N127  2.399 .      S
Zn36  N130  2.311 .      S
Zn36  N131  2.332 .      S
Zn37  N133  2.229 .      S
Zn37  N135  2.315 .      S
Zn37  N138  2.327 .      S
Zn37  N139  2.271 .      S
Zn38  N142  2.222 .      S
Zn38  N144  2.188 .      S
Zn38  N146  2.227 .      S
Zn38  N148  2.182 .      S
Zn39  N132  2.279 .      S
Zn39  N149  2.123 1_554  S
Zn39  N151  2.356 1_554  S
Zn39  N154  2.217 1_554  S
Zn40  N126  2.327 1_565  S
Zn40  N155  2.334 .      S
Zn40  N157  2.169 .      S
Zn40  N160  2.245 .      S
Zn41  N156  2.174 .      S
Zn41  N161  2.191 .      S
Zn41  N163  2.284 .      S
Zn41  N165  2.239 1_545  S
Zn42  N158  2.300 .      S
Zn42  N168  2.323 .      S
Zn42  N170  2.127 .      S
Zn42  N171  2.256 1_565  S
Zn43  N100  2.310 .      S
Zn43  N173  2.400 .      S
Zn43  N255  2.224 .      S
Zn43  N266  2.199 .      S
Zn44  N176  2.302 .      S
Zn44  N178  2.208 .      S
Zn44  N180  2.235 .      S
Zn44  N183  2.281 .      S
Zn45  N182  2.131 .      S
Zn45  N184  2.297 .      S
Zn45  N185  2.208 .      S
Zn45  N188  2.336 .      S
Zn46  N28   2.292 1_565  S
Zn46  N209  2.218 .      S
Zn46  N240  2.217 .      S
Zn46  N287  2.266 .      S
Zn47  N24   2.243 .      S
Zn47  N118  2.242 .      S
Zn47  N166  2.304 .      S
Zn47  N167  2.268 .      S
Zn48  N21   2.231 .      S
Zn48  N32   2.268 .      S
Zn48  N224  2.300 .      S
Zn48  N272  2.242 .      S
Zn49  N34   2.355 .      S
Zn49  N47   2.271 .      S
Zn49  N190  2.300 .      S
Zn49  N191  2.226 .      S
Zn50  N58   2.327 1_554  S
Zn50  N153  2.286 1_554  S
Zn50  N193  2.333 .      S
Zn50  N201  2.182 1_554  S
Zn51  N9    2.381 .      S
Zn51  N35   2.377 .      S
Zn51  N196  2.323 .      S
Zn51  N261  2.192 1_655  S
Zn52  N197  2.244 .      S
Zn52  N199  2.283 .      S
Zn52  N202  2.283 .      S
Zn52  N204  2.207 .      S
Zn53  N206  2.207 .      S
Zn53  N207  2.209 .      S
Zn53  N210  2.270 .      S
Zn53  N212  2.238 .      S
Zn54  N150  2.186 .      S
Zn54  N200  2.243 .      S
Zn54  N213  2.232 .      S
Zn54  N215  2.256 .      S
Zn55  N218  2.181 .      S
Zn55  N220  2.223 .      S
Zn55  N221  2.184 .      S
Zn55  N223  2.294 .      S
Zn56  N116  2.230 .      S
Zn56  N164  2.282 .      S
Zn56  N225  2.160 .      S
Zn56  N227  2.259 .      S
Zn57  N222  2.315 .      S
Zn57  N230  2.200 .      S
Zn57  N231  2.330 .      S
Zn57  N233  2.208 .      S
Zn58  N235  2.286 .      S
Zn58  N238  2.255 .      S
Zn58  N239  2.309 .      S
Zn58  N241  2.297 .      S
Zn59  N211  2.269 .      S
Zn59  N244  2.383 .      S
Zn59  N245  2.294 .      S
Zn59  N248  2.218 .      S
Zn60  N217  2.170 .      S
Zn60  N250  2.226 .      S
Zn60  N252  2.303 .      S
Zn60  N269  2.299 1_545  S
Zn61  N140  2.276 .      S
Zn61  N249  2.189 .      S
Zn61  N254  2.241 .      S
Zn61  N256  2.218 1_545  S
Zn62  N41   2.304 .      S
Zn62  N122  2.242 .      S
Zn62  N257  2.365 .      S
Zn62  N264  2.218 .      S
Zn63  N49   2.339 .      S
Zn63  N62   2.355 .      S
Zn63  N219  2.279 .      S
Zn63  N259  2.287 .      S
Zn64  N83   2.211 .      S
Zn64  N246  2.235 .      S
Zn64  N262  2.285 .      S
Zn64  N284  2.205 .      S
Zn65  N80   2.210 .      S
Zn65  N159  2.299 .      S
Zn65  N228  2.182 .      S
Zn65  N263  2.279 .      S
Zn66  N78   2.127 .      S
Zn66  N234  2.211 .      S
Zn66  N251  2.212 .      S
Zn66  N265  2.248 .      S
Zn67  N72   2.145 .      S
Zn67  N216  2.221 .      S
Zn67  N268  2.368 .      S
Zn67  N282  2.268 .      S
Zn68  N270  2.226 .      S
Zn68  N271  2.144 .      S
Zn68  N273  2.221 .      S
Zn68  N276  2.214 .      S
Zn69  N37   2.256 1_545  S
Zn69  N92   2.296 .      S
Zn69  N267  2.351 1_655  S
Zn69  N278  2.318 .      S
Zn70  N106  2.194 .      S
Zn70  N198  2.247 .      S
Zn70  N279  2.244 .      S
Zn70  N281  2.291 .      S
Zn71  N205  2.243 .      S
Zn71  N236  2.191 .      S
Zn71  N283  2.232 .      S
Zn71  N285  2.278 .      S
Zn72  N189  2.355 .      S
Zn72  N195  2.383 .      S
Zn72  N260  2.193 .      S
Zn72  N288  2.186 .      S
Br1   C1    1.839 .      S
C2    H1    1.069 .      S
C3    H2    1.063 .      S
C4    H3    1.080 .      S
C5    H4    1.062 .      S
C6    C7    1.474 .      S
C9    H5    1.062 .      S
C10   H6    1.080 .      S
C11   H7    1.069 .      S
C12   H8    1.050 .      S
Br2   C14   1.868 .      S
C15   H9    1.081 1_545  S
C16   H10   1.081 .      S
C17   H11   1.080 .      S
C18   H12   1.069 .      S
C19   C20   1.504 .      S
N3    Zn3   2.234 1_545  S
C22   H13   1.065 .      S
C23   H14   1.074 .      S
C24   H15   1.068 .      S
C25   H16   1.061 .      S
H9    C15   1.081 1_565  S
Br3   C27   1.826 .      S
C28   H17   1.074 .      S
C29   H18   1.060 .      S
C30   H19   1.077 .      S
C31   H20   1.069 .      S
C32   C33   1.474 .      S
C35   H21   1.064 .      S
C36   H22   1.081 1_655  S
C37   H23   1.081 1_655  S
C38   H24   1.080 .      S
H22   C36   1.081 1_455  S
H23   C37   1.081 1_455  S
Br4   C40   1.887 .      S
C41   H25   1.058 .      S
C42   H26   1.062 .      S
C43   H27   1.072 .      S
C44   H28   1.060 .      S
C45   C46   1.419 1_545  S
C46   C45   1.419 1_565  S
C48   H29   1.063 .      S
C49   H30   1.078 .      S
C50   H31   1.077 .      S
C51   H32   1.041 .      S
Br5   C53   1.835 .      S
C54   H33   1.078 1_565  S
C55   H34   1.068 .      S
C56   H35   1.075 .      S
C57   H36   1.076 .      S
C58   C59   1.451 1_565  S
C59   C58   1.451 1_545  S
C61   H37   1.051 1_655  S
C62   H38   1.075 .      S
C63   H39   1.081 1_655  S
C64   H40   1.054 .      S
H33   C54   1.078 1_545  S
H37   C61   1.051 1_455  S
H39   C63   1.081 1_455  S
Br6   C66   1.874 .      S
C67   H41   1.076 .      S
C68   H42   1.070 1_655  S
C69   H43   1.077 .      S
C70   H44   1.074 .      S
C71   C72   1.440 .      S
C74   H45   1.064 .      S
C75   H46   1.076 .      S
C76   H47   1.074 .      S
C77   H48   1.063 .      S
H42   C68   1.070 1_455  S
Br7   C79   1.920 .      S
C80   H49   1.080 .      S
C81   H50   1.074 .      S
C82   H51   1.069 .      S
C83   H52   1.075 .      S
C84   C85   1.448 .      S
C87   H53   1.066 .      S
C88   H54   1.076 .      S
C89   H55   1.081 .      S
C90   H56   1.055 .      S
Br8   C92   1.856 .      S
C93   H57   1.077 .      S
C94   H58   1.078 1_545  S
C95   H59   1.078 .      S
C96   H60   1.066 .      S
C97   C98   1.455 .      S
C100  H61   1.077 .      S
C101  H62   1.079 .      S
C102  H63   1.077 .      S
C103  H64   1.074 .      S
H58   C94   1.078 1_565  S
Br9   C105  1.870 .      S
C106  H65   1.066 .      S
C107  H66   1.078 .      S
C108  H67   1.078 .      S
C109  H68   1.080 .      S
C110  C111  1.451 .      S
C113  H69   1.071 .      S
C114  H70   1.077 .      S
C115  H71   1.076 .      S
C116  H72   1.066 .      S
Br10  C118  1.901 .      S
C119  H73   1.073 .      S
C120  H74   1.069 .      S
C121  H75   1.079 .      S
C122  H76   1.078 .      S
C123  C124  1.441 .      S
N19   Zn7   2.280 1_565  S
C126  H77   1.065 .      S
C127  H78   1.080 .      S
C128  H79   1.070 .      S
C129  H80   1.078 .      S
Br11  C131  1.907 .      S
C132  H81   1.065 .      S
C133  H82   1.066 .      S
C134  H83   1.073 .      S
C135  H84   1.070 .      S
C136  C137  1.411 .      S
C139  H85   1.069 .      S
C140  H86   1.080 .      S
C141  H87   1.070 .      S
C142  H88   1.049 .      S
Br12  C144  1.879 .      S
C145  H89   1.069 .      S
C146  H90   1.080 .      S
C147  H91   1.079 .      S
C148  H92   1.077 .      S
C149  C150  1.446 .      S
C152  H93   1.077 .      S
C153  H94   1.075 .      S
C154  H95   1.079 .      S
C155  H96   1.079 .      S
Br13  C157  1.898 .      S
C158  H97   1.073 .      S
C159  H98   1.077 .      S
C160  H99   1.069 .      S
C161  H100  1.048 .      S
C162  C163  1.440 .      S
C165  H101  1.061 .      S
C166  H102  1.078 .      S
C167  H103  1.066 .      S
C168  H104  1.053 .      S
Br14  C170  1.872 .      S
C171  H105  1.078 .      S
C172  H106  1.081 .      S
C173  H107  1.068 .      S
C174  H108  1.070 .      S
C175  C176  1.458 .      S
C178  H109  1.060 .      S
C179  H110  1.046 .      S
C180  H111  1.057 .      S
C181  H112  1.077 .      S
N28   Zn46  2.292 1_545  S
Br15  C183  1.885 .      S
C184  H113  1.081 .      S
C185  H114  1.076 .      S
C186  H115  1.081 .      S
C187  H116  1.079 .      S
C188  C189  1.445 .      S
C191  H117  1.061 .      S
C192  H118  1.071 .      S
C193  H119  1.074 .      S
C194  H120  1.068 .      S
Br16  C196  1.880 1_565  S
C196  Br16  1.880 1_545  S
C197  H121  1.081 .      S
C198  H122  1.080 .      S
C199  H123  1.077 .      S
C200  H124  1.074 .      S
C201  C202  1.496 .      S
C204  H125  1.059 .      S
C205  H126  1.058 .      S
C206  H127  1.075 1_545  S
C207  H128  1.074 .      S
H127  C206  1.075 1_565  S
Br17  C209  1.899 .      S
C210  H129  1.081 .      S
C211  H130  1.065 .      S
C212  H131  1.077 .      S
C213  H132  1.064 .      S
C214  C215  1.435 .      S
C217  H133  1.067 .      S
C218  H134  1.073 .      S
C219  H135  1.070 .      S
C220  H136  1.078 .      S
Br18  C222  1.872 1_655  S
C222  Br18  1.872 1_455  S
C223  H137  1.081 .      S
C224  H138  1.080 .      S
C225  H139  1.055 .      S
C226  H140  1.081 .      S
C227  C228  1.469 1_455  S
C228  C227  1.469 1_655  S
C230  H141  1.055 .      S
C231  H142  1.081 .      S
C232  H143  1.060 .      S
C233  H144  1.066 .      S
Br19  C235  1.884 .      S
C236  H145  1.073 .      S
C237  H146  1.037 .      S
C238  H147  1.076 .      S
C239  H148  1.056 .      S
C240  C241  1.411 1_455  S
C241  C240  1.411 1_655  S
N37   Zn69  2.256 1_565  S
C243  H149  1.074 .      S
C244  H150  1.067 .      S
C245  H151  1.067 .      S
C246  H152  1.072 .      S
Br20  C248  1.872 .      S
C249  H153  1.073 .      S
C250  H154  1.076 .      S
C251  H155  1.061 .      S
C252  H156  1.074 .      S
C253  C254  1.470 .      S
C256  H157  1.079 .      S
C257  H158  1.080 .      S
C258  H159  1.077 1_655  S
C259  H160  1.068 .      S
H159  C258  1.077 1_455  S
Br21  C261  1.859 .      S
C262  H161  1.076 .      S
C263  H162  1.077 .      S
C264  H163  1.058 .      S
C265  H164  1.081 .      S
C266  C267  1.438 .      S
C269  H165  1.070 .      S
C270  H166  1.079 .      S
C271  H167  1.076 .      S
C272  H168  1.079 .      S
Br22  C274  1.884 .      S
C275  H169  1.073 .      S
C276  H170  1.081 .      S
C277  H171  1.081 .      S
C278  H172  1.078 .      S
C279  C280  1.462 .      S
C282  H173  1.070 .      S
C283  H174  1.080 .      S
C284  H175  1.074 .      S
C285  H176  1.063 .      S
Br23  C287  1.853 .      S
C288  H177  1.062 1_565  S
C289  H178  1.068 .      S
C290  H179  1.070 .      S
C291  H180  1.068 .      S
C292  C293  1.435 .      S
C295  H181  1.062 .      S
C296  H182  1.077 .      S
C297  H183  1.080 .      S
C298  H184  1.061 .      S
H177  C288  1.062 1_545  S
Br24  C300  1.857 .      S
C301  H185  1.081 .      S
C302  H186  1.079 .      S
C303  H187  1.079 .      S
C304  H188  1.064 .      S
C305  C306  1.484 .      S
C308  H189  1.058 .      S
C309  H190  1.073 .      S
C310  H191  1.061 1_655  S
C311  H192  1.074 .      S
H191  C310  1.061 1_455  S
Br25  C313  1.897 .      S
C314  H193  1.070 .      S
C315  H194  1.076 .      S
C316  H195  1.076 .      S
C317  H196  1.054 .      S
C318  C319  1.436 .      S
C321  H197  1.061 .      S
C322  H198  1.074 .      S
C323  H199  1.065 .      S
C324  H200  1.068 .      S
Br26  C326  1.894 .      S
C327  H201  1.052 .      S
C328  H202  1.081 .      S
C329  H203  1.064 .      S
C330  H204  1.059 .      S
C331  C332  1.434 .      S
C334  H205  1.073 .      S
C335  H206  1.078 .      S
C336  H207  1.071 .      S
C337  H208  1.024 .      S
Br27  C339  1.872 .      S
C340  H209  1.075 .      S
C341  H210  1.080 .      S
C342  H211  1.080 .      S
C343  H212  1.060 .      S
C344  C345  1.476 .      S
C347  H213  1.073 .      S
C348  H214  1.052 1_655  S
C349  H215  1.077 .      S
C350  H216  1.047 .      S
H214  C348  1.052 1_455  S
Br28  C352  1.867 1_455  S
C352  Br28  1.867 1_655  S
C353  H217  1.047 .      S
C354  H218  1.081 1_655  S
C355  H219  1.054 .      S
C356  H220  1.080 .      S
C357  C358  1.422 .      S
C360  H221  1.066 .      S
C361  H222  1.079 .      S
C362  H223  1.078 .      S
C363  H224  1.076 .      S
H218  C354  1.081 1_455  S
Br29  C365  1.902 1_455  S
C365  Br29  1.902 1_655  S
C366  H225  1.073 .      S
C367  H226  1.081 .      S
C368  H227  1.068 .      S
C369  H228  1.072 .      S
C370  C371  1.450 1_655  S
C371  C370  1.450 1_455  S
C373  H229  1.067 .      S
C374  H230  1.078 .      S
C375  H231  1.068 .      S
C376  H232  1.062 .      S
N58   Zn50  2.327 1_556  S
Br30  C378  1.863 .      S
C379  H233  1.078 .      S
C380  H234  1.081 .      S
C381  H235  1.080 .      S
C382  H236  1.074 .      S
C383  C384  1.466 .      S
C386  H237  1.065 .      S
C387  H238  1.081 .      S
C388  H239  1.079 1_545  S
C389  H240  1.065 .      S
H239  C388  1.079 1_565  S
Br31  C391  1.887 .      S
C392  H241  1.062 .      S
C393  H242  1.067 .      S
C394  H243  1.078 .      S
C395  H244  1.048 1_655  S
C396  C397  1.441 1_565  S
C397  C396  1.441 1_545  S
C399  H245  1.074 .      S
C400  H246  1.069 .      S
C401  H247  1.063 .      S
C402  H248  1.051 1_455  S
H244  C395  1.048 1_455  S
H248  C402  1.051 1_655  S
Br32  C404  1.896 .      S
C405  H249  1.081 .      S
C406  H250  1.075 .      S
C407  H251  1.076 .      S
C408  H252  1.073 .      S
C409  C410  1.463 .      S
C412  H253  1.069 .      S
C413  H254  1.074 .      S
C414  H255  1.080 .      S
C415  H256  1.051 1_565  S
N64   Zn20  2.227 1_565  S
H256  C415  1.051 1_545  S
Br33  C417  1.855 .      S
C418  H257  1.079 .      S
C419  H258  1.078 .      S
C420  H259  1.077 .      S
C421  H260  1.068 .      S
C422  C423  1.461 .      S
C425  H261  1.054 .      S
C426  H262  1.077 .      S
C427  H263  1.072 1_655  S
C428  H264  1.076 .      S
N66   Zn21  2.350 1_545  S
H263  C427  1.072 1_455  S
Br34  C430  1.829 .      S
C431  H265  1.062 .      S
C432  H266  1.081 .      S
C433  H267  1.081 .      S
C434  H268  1.075 .      S
C435  C436  1.453 .      S
C438  H269  1.078 .      S
C439  H270  1.081 .      S
C440  H271  1.081 .      S
C441  H272  1.046 .      S
Br35  C443  1.895 .      S
C444  H273  1.077 .      S
C445  H274  1.075 .      S
C446  H275  1.060 .      S
C447  H276  1.076 .      S
C448  C449  1.454 .      S
C451  H277  1.073 .      S
C452  H278  1.080 .      S
C453  H279  1.081 .      S
C454  H280  1.055 .      S
Br36  C456  1.891 .      S
C457  H281  1.062 .      S
C458  H282  1.076 .      S
C459  H283  1.072 .      S
C460  H284  1.062 .      S
C461  C462  1.440 .      S
C464  H285  1.067 .      S
C465  H286  1.081 .      S
C466  H287  1.081 .      S
C467  H288  1.073 .      S
Br37  C469  1.844 .      S
C470  H289  1.068 .      S
C471  H290  1.070 .      S
C472  H291  1.068 .      S
C473  H292  1.074 .      S
C474  C475  1.437 .      S
C477  H293  1.048 .      S
C478  H294  1.070 .      S
C479  H295  1.077 .      S
C480  H296  1.080 .      S
Br38  C482  1.904 .      S
C483  H297  1.076 .      S
C484  H298  1.081 .      S
C485  H299  1.068 .      S
C486  H300  1.074 .      S
C487  C488  1.441 .      S
C490  H301  1.078 .      S
C491  H302  1.081 .      S
C492  H303  1.081 .      S
C493  H304  1.076 .      S
Br39  C495  1.877 .      S
C496  H305  1.074 .      S
C497  H306  1.065 .      S
C498  H307  1.067 .      S
C499  H308  1.076 .      S
C500  C501  1.414 .      S
C503  H309  1.066 .      S
C504  H310  1.081 .      S
C505  H311  1.081 .      S
C506  H312  1.081 .      S
Br40  C508  1.901 .      S
C509  H313  1.058 .      S
C510  H314  1.074 .      S
C511  H315  1.071 .      S
C512  H316  1.063 .      S
C513  C514  1.449 .      S
C516  H317  1.056 .      S
C517  H318  1.080 .      S
C518  H319  1.081 .      S
C519  H320  1.050 .      S
Br41  C521  1.890 .      S
C522  H321  1.073 .      S
C523  H322  1.076 .      S
C524  H323  1.075 .      S
C525  H324  1.041 .      S
C526  C527  1.459 .      S
C529  H325  1.040 .      S
C530  H326  1.081 .      S
C531  H327  1.076 .      S
C532  H328  1.068 .      S
Br42  C534  1.891 .      S
C535  H329  1.067 .      S
C536  H330  1.064 .      S
C537  H331  1.059 .      S
C538  H332  1.059 .      S
C539  C540  1.425 .      S
C542  H333  1.073 .      S
C543  H334  1.081 .      S
C544  H335  1.081 .      S
C545  H336  1.070 .      S
Br43  C547  1.830 .      S
C548  H337  1.073 .      S
C549  H338  1.059 .      S
C550  H339  1.075 .      S
C551  H340  1.073 .      S
C552  C553  1.462 .      S
C555  H341  1.052 .      S
C556  H342  1.073 .      S
C557  H343  1.066 .      S
C558  H344  1.079 .      S
Br44  C560  1.907 .      S
C561  H345  1.060 .      S
C562  H346  1.062 .      S
C563  H347  1.065 .      S
C564  H348  1.066 .      S
C565  C566  1.407 .      S
C568  H349  1.063 .      S
C569  H350  1.073 .      S
C570  H351  1.080 .      S
C571  H352  1.048 .      S
Br45  C573  1.879 .      S
C574  H353  1.081 .      S
C575  H354  1.081 .      S
C576  H355  1.081 .      S
C577  H356  1.066 .      S
C578  C579  1.494 .      S
N89   Zn10  2.342 1_545  S
C581  H357  1.050 .      S
C582  H358  1.078 .      S
C583  H359  1.064 .      S
C584  H360  1.069 .      S
Br46  C586  1.907 .      S
C587  H361  1.068 .      S
C588  H362  1.075 .      S
C589  H363  1.079 .      S
C590  H364  1.065 .      S
C591  C592  1.441 .      S
C594  H365  1.068 .      S
C595  H366  1.080 .      S
C596  H367  1.075 1_655  S
C597  H368  1.073 .      S
H367  C596  1.075 1_455  S
Br47  C599  1.901 .      S
C600  H369  1.064 .      S
C601  H370  1.074 .      S
C602  H371  1.076 .      S
C603  H372  1.076 .      S
C604  C605  1.405 .      S
C607  H373  1.079 .      S
C608  H374  1.076 .      S
C609  H375  1.073 .      S
C610  H376  1.051 .      S
N94   Zn28  2.208 1_565  S
Br48  C612  1.875 .      S
C613  H377  1.080 .      S
C614  H378  1.081 .      S
C615  H379  1.070 .      S
C616  H380  1.069 .      S
C617  C618  1.470 .      S
C620  H381  1.052 .      S
C621  H382  1.081 .      S
C622  H383  1.069 .      S
C623  H384  1.053 .      S
Br49  C625  1.776 .      S
C626  H385  1.079 .      S
C627  H386  1.075 .      S
C628  H387  1.063 .      S
C629  H388  1.060 .      S
C630  C631  1.509 .      S
C633  H389  1.075 .      S
C634  H390  1.077 .      S
C635  H391  1.075 .      S
C636  H392  1.074 .      S
Br50  C638  1.903 .      S
C639  H393  1.081 .      S
C640  H394  1.080 .      S
C641  H395  1.075 .      S
C642  H396  1.070 .      S
C643  C644  1.471 .      S
C646  H397  1.073 .      S
C647  H398  1.081 .      S
C648  H399  1.081 .      S
C649  H400  1.043 .      S
Br51  C651  1.819 .      S
C652  H401  1.071 .      S
C653  H402  1.031 .      S
C654  H403  1.058 .      S
C655  H404  1.065 .      S
C656  C657  1.409 .      S
C659  H405  1.062 .      S
C660  H406  1.067 .      S
C661  H407  1.078 .      S
C662  H408  1.080 .      S
Br52  C664  1.889 1_545  S
C664  Br52  1.889 1_565  S
C665  H409  1.081 .      S
C666  H410  1.081 .      S
C667  H411  1.081 .      S
C668  H412  1.081 .      S
C669  C670  1.455 .      S
C672  H413  1.074 .      S
C673  H414  1.079 .      S
C674  H415  1.081 .      S
C675  H416  1.066 .      S
Br53  C677  1.888 .      S
C678  H417  1.080 .      S
C679  H418  1.074 .      S
C680  H419  1.072 .      S
C681  H420  1.053 .      S
C682  C683  1.430 .      S
C685  H421  1.050 .      S
C686  H422  1.081 .      S
C687  H423  1.076 .      S
C688  H424  1.077 .      S
Br54  C690  1.881 .      S
C691  H425  1.071 .      S
C692  H426  1.081 .      S
C693  H427  1.081 .      S
C694  H428  1.061 .      S
C695  C696  1.471 .      S
C698  H429  1.072 .      S
C699  H430  1.069 .      S
C700  H431  1.064 .      S
C701  H432  1.068 .      S
Br55  C703  1.872 1_545  S
C703  Br55  1.872 1_565  S
C704  H433  1.073 .      S
C705  H434  1.061 .      S
C706  H435  1.072 .      S
C707  H436  1.074 .      S
C708  C709  1.454 .      S
C711  H437  1.074 .      S
C712  H438  1.079 .      S
C713  H439  1.077 .      S
C714  H440  1.052 .      S
Br56  C716  1.851 .      S
C717  H441  1.049 .      S
C718  H442  1.068 .      S
C719  H443  1.072 .      S
C720  H444  1.039 .      S
C721  C722  1.513 .      S
C724  H445  1.079 .      S
C725  H446  1.046 .      S
C726  H447  1.077 .      S
C727  H448  1.060 .      S
Br57  C729  1.865 .      S
C730  H449  1.078 .      S
C731  H450  1.075 .      S
C732  H451  1.078 .      S
C733  H452  1.078 .      S
C734  C735  1.456 .      S
C737  H453  1.076 .      S
C738  H454  1.079 .      S
C739  H455  1.080 .      S
C740  H456  1.076 .      S
Br58  C742  1.886 .      S
C743  H457  1.060 .      S
C744  H458  1.075 .      S
C745  H459  1.077 .      S
C746  H460  1.069 .      S
C747  C748  1.444 .      S
C750  H461  1.066 .      S
C751  H462  1.068 .      S
C752  H463  1.056 .      S
C753  H464  1.068 .      S
Br59  C755  1.871 .      S
C756  H465  1.081 .      S
C757  H466  1.081 .      S
C758  H467  1.079 .      S
C759  H468  1.070 .      S
C760  C761  1.495 .      S
C763  H469  1.050 .      S
C764  H470  1.058 .      S
C765  H471  1.064 .      S
C766  H472  1.070 .      S
Br60  C768  1.864 .      S
C769  H473  1.056 .      S
C770  H474  1.080 .      S
C771  H475  1.078 .      S
C772  H476  1.075 .      S
C773  C774  1.422 .      S
C776  H477  1.059 .      S
C777  H478  1.058 .      S
C778  H479  1.078 .      S
C779  H480  1.075 .      S
Br61  C781  1.888 1_455  S
C781  Br61  1.888 1_655  S
C782  H481  1.071 .      S
C783  H482  1.076 .      S
C784  H483  1.081 .      S
C785  H484  1.053 .      S
C786  C787  1.466 .      S
C789  H485  1.078 .      S
C790  H486  1.079 .      S
C791  H487  1.078 .      S
C792  H488  1.071 .      S
Br62  C794  1.923 .      S
C795  H489  1.071 .      S
C796  H490  1.074 .      S
C797  H491  1.076 .      S
C798  H492  1.079 .      S
C799  C800  1.417 .      S
C802  H493  1.063 .      S
C803  H494  1.078 .      S
C804  H495  1.078 .      S
C805  H496  1.062 .      S
Br63  C807  1.864 .      S
C808  H497  1.072 .      S
C809  H498  1.075 .      S
C810  H499  1.068 .      S
C811  H500  1.071 1_455  S
C812  C813  1.426 1_455  S
C813  C812  1.426 1_655  S
C815  H501  1.057 1_655  S
C816  H502  1.081 .      S
C817  H503  1.080 .      S
C818  H504  1.073 .      S
N126  Zn40  2.327 1_545  S
H500  C811  1.071 1_655  S
H501  C815  1.057 1_455  S
Br64  C820  1.851 .      S
C821  H505  1.072 .      S
C822  H506  1.072 .      S
C823  H507  1.079 .      S
C824  H508  1.059 .      S
C825  C826  1.463 .      S
C828  H509  1.037 .      S
C829  H510  1.066 .      S
C830  H511  1.080 1_545  S
C831  H512  1.077 .      S
H511  C830  1.080 1_565  S
Br65  C833  1.864 .      S
C834  H513  1.074 .      S
C835  H514  1.072 .      S
C836  H515  1.064 .      S
C837  H516  1.078 .      S
C838  C839  1.434 1_545  S
C839  C838  1.434 1_565  S
C841  H517  1.069 .      S
C842  H518  1.077 .      S
C843  H519  1.073 .      S
C844  H520  1.064 .      S
Br66  C846  1.895 .      S
C847  H521  1.080 .      S
C848  H522  1.081 1_554  S
C849  H523  1.078 1_554  S
C850  H524  1.077 .      S
C851  C852  1.451 .      S
C854  H525  1.070 .      S
C855  H526  1.067 .      S
C856  H527  1.079 .      S
C857  H528  1.063 .      S
H522  C848  1.081 1_556  S
H523  C849  1.078 1_556  S
Br67  C859  1.862 .      S
C860  H529  1.063 .      S
C861  H530  1.076 1_545  S
C862  H531  1.077 .      S
C863  H532  1.064 .      S
C864  C865  1.461 .      S
C867  H533  1.076 .      S
C868  H534  1.071 .      S
C869  H535  1.078 .      S
C870  H536  1.048 .      S
H530  C861  1.076 1_565  S
Br68  C872  1.856 .      S
C873  H537  1.079 .      S
C874  H538  1.077 .      S
C875  H539  1.080 .      S
C876  H540  1.061 .      S
C877  C878  1.486 .      S
C880  H541  1.064 .      S
C881  H542  1.081 .      S
C882  H543  1.078 .      S
C883  H544  1.080 .      S
Br69  C885  1.814 .      S
C886  H545  1.058 .      S
C887  H546  1.073 .      S
C888  H547  1.032 .      S
C889  H548  1.074 .      S
C890  C891  1.453 .      S
C893  H549  1.081 .      S
C894  H550  1.081 .      S
C895  H551  1.081 .      S
C896  H552  1.065 .      S
Br70  C898  1.877 .      S
C899  H553  1.079 .      S
C900  H554  1.054 .      S
C901  H555  1.079 .      S
C902  H556  1.075 .      S
C903  C904  1.427 .      S
C906  H557  1.051 .      S
C907  H558  1.081 .      S
C908  H559  1.077 1_455  S
C909  H560  1.063 .      S
H559  C908  1.077 1_655  S
Br71  C911  1.880 .      S
C912  H561  1.059 .      S
C913  H562  1.080 .      S
C914  H563  1.081 .      S
C915  H564  1.072 .      S
C916  C917  1.473 .      S
C919  H565  1.057 .      S
C920  H566  1.057 .      S
C921  H567  1.070 .      S
C922  H568  1.054 .      S
Br72  C924  1.871 .      S
C925  H569  1.057 .      S
C926  H570  1.076 .      S
C927  H571  1.063 .      S
C928  H572  1.063 .      S
C929  C930  1.415 .      S
C932  H573  1.051 .      S
C933  H574  1.077 .      S
C934  H575  1.073 .      S
C935  H576  1.073 .      S
Br73  C937  1.897 .      S
C938  H577  1.055 .      S
C939  H578  1.077 .      S
C940  H579  1.075 .      S
C941  H580  1.061 .      S
C942  C943  1.471 .      S
C945  H581  1.075 .      S
C946  H582  1.080 .      S
C947  H583  1.079 .      S
C948  H584  1.045 .      S
Br74  C950  1.865 .      S
C951  H585  1.075 .      S
C952  H586  1.081 .      S
C953  H587  1.079 .      S
C954  H588  1.069 .      S
C955  C956  1.472 .      S
C958  H589  1.045 .      S
C959  H590  1.081 .      S
C960  H591  1.081 .      S
C961  H592  1.062 .      S
Br75  C963  1.874 .      S
C964  H593  1.062 1_545  S
C965  H594  1.055 1_545  S
C966  H595  1.074 .      S
C967  H596  1.066 .      S
C968  C969  1.412 .      S
N149  Zn39  2.123 1_556  S
C971  H597  1.077 1_556  S
C972  H598  1.079 1_556  S
C973  H599  1.081 .      S
C974  H600  1.067 .      S
H593  C964  1.062 1_565  S
H594  C965  1.055 1_565  S
H597  C971  1.077 1_554  S
H598  C972  1.079 1_554  S
Br76  C976  1.893 1_554  S
C976  Br76  1.893 1_556  S
C977  H601  1.067 .      S
C978  H602  1.081 .      S
C979  H603  1.072 .      S
C980  H604  1.060 1_455  S
C981  C982  1.434 .      S
N151  Zn39  2.356 1_556  S
C984  H605  1.071 .      S
C985  H606  1.080 .      S
C986  H607  1.061 .      S
C987  H608  1.070 .      S
N152  Zn21  2.363 1_545  S
H604  C980  1.060 1_655  S
Br77  C989  1.909 1_556  S
C989  Br77  1.909 1_554  S
C990  H609  1.080 .      S
C991  H610  1.077 .      S
C992  H611  1.077 .      S
C993  H612  1.073 .      S
C994  C995  1.456 .      S
N153  Zn50  2.286 1_556  S
C997  H613  1.074 .      S
C998  H614  1.074 .      S
C999  H615  1.075 .      S
C1000 H616  1.073 .      S
N154  Zn39  2.217 1_556  S
Br78  C1002 1.898 .      S
C1003 H617  1.053 .      S
C1004 H618  1.060 .      S
C1005 H619  1.078 .      S
C1006 H620  1.064 .      S
C1007 C1008 1.386 .      S
C1010 H621  1.060 .      S
C1011 H622  1.060 1_655  S
C1012 H623  1.066 .      S
C1013 H624  1.073 .      S
H622  C1011 1.060 1_455  S
Br79  C1015 1.890 .      S
C1016 H625  1.074 .      S
C1017 H626  1.073 .      S
C1018 H627  1.079 .      S
C1019 H628  1.066 .      S
C1020 C1021 1.454 .      S
C1023 H629  1.059 .      S
C1024 H630  1.069 .      S
C1025 H631  1.080 .      S
C1026 H632  1.051 .      S
Br80  C1028 1.795 .      S
C1029 H633  1.074 1_655  S
C1030 H634  1.071 1_655  S
C1031 H635  1.065 .      S
C1032 H636  1.049 .      S
C1033 C1034 1.479 .      S
C1036 H637  1.059 .      S
C1037 H638  1.081 .      S
C1038 H639  1.081 .      S
C1039 H640  1.049 .      S
H633  C1029 1.074 1_455  S
H634  C1030 1.071 1_455  S
Br81  C1041 1.902 .      S
C1042 H641  1.077 1_655  S
C1043 H642  1.077 1_655  S
C1044 H643  1.071 .      S
C1045 H644  1.070 .      S
C1046 C1047 1.423 .      S
C1049 H645  1.075 .      S
C1050 H646  1.079 .      S
C1051 H647  1.071 .      S
C1052 H648  1.078 .      S
N162  Zn21  2.228 1_544  S
H641  C1042 1.077 1_455  S
H642  C1043 1.077 1_455  S
Br82  C1054 1.910 .      S
C1055 H649  1.080 .      S
C1056 H650  1.077 1_655  S
C1057 H651  1.068 .      S
C1058 H652  1.069 .      S
C1059 C1060 1.443 .      S
C1062 H653  1.041 .      S
C1063 H654  1.060 .      S
C1064 H655  1.046 .      S
C1065 H656  1.065 .      S
H650  C1056 1.077 1_455  S
Br83  C1067 1.886 .      S
C1068 H657  1.066 .      S
C1069 H658  1.081 .      S
C1070 H659  1.069 .      S
C1071 H660  1.080 .      S
C1072 C1073 1.444 .      S
N165  Zn41  2.239 1_565  S
C1075 H661  1.077 .      S
C1076 H662  1.055 .      S
C1077 H663  1.078 .      S
C1078 H664  1.061 .      S
Br84  C1080 1.825 .      S
C1081 H665  1.067 .      S
C1082 H666  1.066 .      S
C1083 H667  1.065 .      S
C1084 H668  1.040 .      S
C1085 C1086 1.442 .      S
C1088 H669  1.067 .      S
C1089 H670  1.076 .      S
C1090 H671  1.077 1_565  S
C1091 H672  1.080 1_565  S
H671  C1090 1.077 1_545  S
H672  C1091 1.080 1_545  S
Br85  C1093 1.892 .      S
C1094 H673  1.074 .      S
C1095 H674  1.079 .      S
C1096 H675  1.074 .      S
C1097 H676  1.066 .      S
C1098 C1099 1.473 .      S
C1101 H677  1.073 .      S
C1102 H678  1.081 .      S
C1103 H679  1.077 .      S
C1104 H680  1.073 .      S
Br86  C1106 1.860 .      S
C1107 H681  1.078 .      S
C1108 H682  1.081 .      S
C1109 H683  1.081 .      S
C1110 H684  1.065 .      S
C1111 C1112 1.472 .      S
N171  Zn42  2.256 1_545  S
C1114 H685  1.043 .      S
C1115 H686  1.079 .      S
C1116 H687  1.061 .      S
C1117 H688  1.053 .      S
Br87  C1119 1.889 .      S
C1120 H689  1.078 .      S
C1121 H690  1.081 .      S
C1122 H691  1.077 .      S
C1123 H692  1.062 .      S
C1124 C1125 1.477 .      S
C1127 H693  1.057 .      S
C1128 H694  1.078 .      S
C1129 H695  1.075 .      S
C1130 H696  1.077 .      S
Br88  C1132 1.897 .      S
C1133 H697  1.053 .      S
C1134 H698  1.079 .      S
C1135 H699  1.071 .      S
C1136 H700  1.077 .      S
C1137 C1138 1.421 .      S
C1140 H701  1.058 1_655  S
C1141 H702  1.077 .      S
C1142 H703  1.081 1_655  S
C1143 H704  1.041 .      S
H701  C1140 1.058 1_455  S
H703  C1142 1.081 1_455  S
Br89  C1145 1.870 .      S
C1146 H705  1.065 .      S
C1147 H706  1.068 .      S
C1148 H707  1.056 .      S
C1149 H708  1.077 .      S
C1150 C1151 1.419 .      S
C1153 H709  1.070 .      S
C1154 H710  1.078 .      S
C1155 H711  1.077 .      S
C1156 H712  1.076 .      S
Br90  C1158 1.907 .      S
C1159 H713  1.075 .      S
C1160 H714  1.073 .      S
C1161 H715  1.079 .      S
C1162 H716  1.080 .      S
C1163 C1164 1.401 .      S
C1166 H717  1.054 .      S
C1167 H718  1.081 .      S
C1168 H719  1.080 .      S
C1169 H720  1.075 .      S
Br91  C1171 1.781 .      S
C1172 H721  1.068 .      S
C1173 H722  1.069 .      S
C1174 H723  1.075 .      S
C1175 H724  1.074 .      S
C1176 C1177 1.462 .      S
C1179 H725  1.058 .      S
C1180 H726  1.063 .      S
C1181 H727  1.079 .      S
C1182 H728  1.069 .      S
Br92  C1184 1.916 .      S
C1185 H729  1.080 .      S
C1186 H730  1.074 .      S
C1187 H731  1.063 .      S
C1188 H732  1.078 .      S
C1189 C1190 1.464 .      S
C1192 H733  1.073 .      S
C1193 H734  1.080 .      S
C1194 H735  1.075 .      S
C1195 H736  1.074 .      S
Br93  C1197 1.889 .      S
C1198 H737  1.079 .      S
C1199 H738  1.081 .      S
C1200 H739  1.079 .      S
C1201 H740  1.076 .      S
C1202 C1203 1.459 .      S
C1205 H741  1.073 .      S
C1206 H742  1.049 .      S
C1207 H743  1.060 .      S
C1208 H744  1.062 .      S
Br94  C1210 1.874 .      S
C1211 H745  1.064 .      S
C1212 H746  1.080 .      S
C1213 H747  1.059 .      S
C1214 H748  1.080 .      S
C1215 C1216 1.442 .      S
C1218 H749  1.071 .      S
C1219 H750  1.080 .      S
C1220 H751  1.080 .      S
C1221 H752  1.078 .      S
Br95  C1223 1.913 .      S
C1224 H753  1.079 .      S
C1225 H754  1.073 .      S
C1226 H755  1.076 .      S
C1227 H756  1.080 .      S
C1228 C1229 1.433 .      S
C1231 H757  1.053 .      S
C1232 H758  1.079 .      S
C1233 H759  1.070 .      S
C1234 H760  1.058 .      S
Br96  C1236 1.867 .      S
C1237 H761  1.081 .      S
C1238 H762  1.075 .      S
C1239 H763  1.073 .      S
C1240 H764  1.071 .      S
C1241 C1242 1.447 .      S
C1244 H765  1.055 .      S
C1245 H766  1.081 .      S
C1246 H767  1.078 .      S
C1247 H768  1.073 .      S
Br97  C1249 1.916 .      S
C1250 H769  1.080 .      S
C1251 H770  1.079 .      S
C1252 H771  1.070 .      S
C1253 H772  1.076 .      S
C1254 C1255 1.434 .      S
C1257 H773  1.064 .      S
C1258 H774  1.066 .      S
C1259 H775  1.069 .      S
C1260 H776  1.077 .      S
Br98  C1262 1.868 .      S
C1263 H777  1.081 .      S
C1264 H778  1.045 .      S
C1265 H779  1.075 .      S
C1266 H780  1.078 .      S
C1267 C1268 1.438 .      S
C1270 H781  1.073 .      S
C1271 H782  1.078 .      S
C1272 H783  1.050 .      S
C1273 H784  1.069 .      S
Br99  C1275 1.907 .      S
C1276 H785  1.071 .      S
C1277 H786  1.037 .      S
C1278 H787  1.079 .      S
C1279 H788  1.075 .      S
C1280 C1281 1.367 .      S
C1283 H789  1.074 .      S
C1284 H790  1.065 .      S
C1285 H791  1.059 .      S
C1286 H792  1.071 .      S
Br100 C1288 1.887 .      S
C1289 H793  1.056 .      S
C1290 H794  1.080 .      S
C1291 H795  1.056 .      S
C1292 H796  1.076 .      S
C1293 C1294 1.435 .      S
C1296 H797  1.060 .      S
C1297 H798  1.078 .      S
C1298 H799  1.078 .      S
C1299 H800  1.070 .      S
Br101 C1301 1.853 .      S
C1302 H801  1.078 .      S
C1303 H802  1.074 .      S
C1304 H803  1.066 .      S
C1305 H804  1.069 .      S
C1306 C1307 1.454 .      S
N201  Zn50  2.182 1_556  S
C1309 H805  1.078 1_556  S
C1310 H806  1.076 .      S
C1311 H807  1.076 .      S
C1312 H808  1.046 .      S
H805  C1309 1.078 1_554  S
Br102 C1314 1.882 .      S
C1315 H809  1.081 .      S
C1316 H810  1.079 1_565  S
C1317 H811  1.077 .      S
C1318 H812  1.058 .      S
C1319 C1320 1.499 .      S
C1322 H813  1.052 .      S
C1323 H814  1.074 .      S
C1324 H815  1.075 .      S
C1325 H816  1.059 .      S
H810  C1316 1.079 1_545  S
Br103 C1327 1.872 .      S
C1328 H817  1.070 .      S
C1329 H818  1.049 1_565  S
C1330 H819  1.075 .      S
C1331 H820  1.059 .      S
C1332 C1333 1.440 .      S
C1335 H821  1.053 .      S
C1336 H822  1.081 .      S
C1337 H823  1.079 .      S
C1338 H824  1.066 .      S
H818  C1329 1.049 1_545  S
Br104 C1340 1.864 .      S
C1341 H825  1.076 .      S
C1342 H826  1.070 .      S
C1343 H827  1.071 .      S
C1344 H828  1.072 .      S
C1345 C1346 1.442 .      S
C1348 H829  1.077 .      S
C1349 H830  1.081 .      S
C1350 H831  1.079 .      S
C1351 H832  1.075 .      S
Br105 C1353 1.911 .      S
C1354 H833  1.070 .      S
C1355 H834  1.065 .      S
C1356 H835  1.071 .      S
C1357 H836  1.076 .      S
C1358 C1359 1.437 .      S
C1361 H837  1.075 .      S
C1362 H838  1.081 .      S
C1363 H839  1.081 .      S
C1364 H840  1.070 .      S
Br106 C1366 1.883 .      S
C1367 H841  1.065 .      S
C1368 H842  1.075 .      S
C1369 H843  1.065 .      S
C1370 H844  1.071 .      S
C1371 C1372 1.457 .      S
C1374 H845  1.067 .      S
C1375 H846  1.068 .      S
C1376 H847  1.056 .      S
C1377 H848  1.062 .      S
Br107 C1379 1.911 .      S
C1380 H849  1.063 .      S
C1381 H850  1.076 .      S
C1382 H851  1.072 .      S
C1383 H852  1.075 .      S
C1384 C1385 1.436 .      S
C1387 H853  1.074 .      S
C1388 H854  1.065 .      S
C1389 H855  1.078 .      S
C1390 H856  1.067 .      S
Br108 C1392 1.870 .      S
C1393 H857  1.070 .      S
C1394 H858  1.073 .      S
C1395 H859  1.070 .      S
C1396 H860  1.075 .      S
C1397 C1398 1.443 .      S
C1400 H861  1.050 .      S
C1401 H862  1.079 1_545  S
C1402 H863  1.041 1_545  S
C1403 H864  1.073 .      S
H862  C1401 1.079 1_565  S
H863  C1402 1.041 1_565  S
Br109 C1405 1.882 .      S
C1406 H865  1.079 .      S
C1407 H866  1.070 .      S
C1408 H867  1.070 .      S
C1409 H868  1.054 .      S
C1410 C1411 1.432 .      S
C1413 H869  1.071 .      S
C1414 H870  1.073 .      S
C1415 H871  1.075 .      S
C1416 H872  1.053 .      S
Br110 C1418 1.860 .      S
C1419 H873  1.075 1_655  S
C1420 H874  1.075 .      S
C1421 H875  1.079 .      S
C1422 H876  1.064 .      S
C1423 C1424 1.457 .      S
C1426 H877  1.067 .      S
C1427 H878  1.078 .      S
C1428 H879  1.080 .      S
C1429 H880  1.075 .      S
H873  C1419 1.075 1_455  S
Br111 C1431 1.884 .      S
C1432 H881  1.072 .      S
C1433 H882  1.077 .      S
C1434 H883  1.072 .      S
C1435 H884  1.074 .      S
C1436 C1437 1.447 .      S
C1439 H885  1.073 .      S
C1440 H886  1.072 .      S
C1441 H887  1.049 .      S
C1442 H888  1.049 .      S
Br112 C1444 1.895 .      S
C1445 H889  1.071 .      S
C1446 H890  1.081 .      S
C1447 H891  1.080 .      S
C1448 H892  1.077 .      S
C1449 C1450 1.467 .      S
C1452 H893  1.080 .      S
C1453 H894  1.071 .      S
C1454 H895  1.078 .      S
C1455 H896  1.053 .      S
Br113 C1457 1.896 .      S
C1458 H897  1.079 .      S
C1459 H898  1.079 .      S
C1460 H899  1.076 .      S
C1461 H900  1.064 .      S
C1462 C1463 1.437 .      S
C1465 H901  1.069 .      S
C1466 H902  1.058 .      S
C1467 H903  1.076 .      S
C1468 H904  1.066 .      S
N226  Zn19  2.159 1_554  S
Br114 C1470 1.913 .      S
C1471 H905  1.077 .      S
C1472 H906  1.071 .      S
C1473 H907  1.074 .      S
C1474 H908  1.060 .      S
C1475 C1476 1.458 .      S
C1478 H909  1.060 .      S
C1479 H910  1.066 .      S
C1480 H911  1.074 .      S
C1481 H912  1.070 .      S
Br115 C1483 1.881 .      S
C1484 H913  1.069 .      S
C1485 H914  1.068 1_655  S
C1486 H915  1.074 .      S
C1487 H916  1.077 .      S
C1488 C1489 1.451 .      S
C1491 H917  1.071 .      S
C1492 H918  1.078 .      S
C1493 H919  1.081 .      S
C1494 H920  1.071 .      S
H914  C1485 1.068 1_455  S
Br116 C1496 1.907 .      S
C1497 H921  1.073 .      S
C1498 H922  1.055 .      S
C1499 H923  1.074 .      S
C1500 H924  1.061 .      S
C1501 C1502 1.437 .      S
C1504 H925  1.074 .      S
C1505 H926  1.077 .      S
C1506 H927  1.077 .      S
C1507 H928  1.057 .      S
Br117 C1509 1.820 .      S
C1510 H929  1.065 .      S
C1511 H930  1.059 .      S
C1512 H931  1.074 .      S
C1513 H932  1.072 .      S
C1514 C1515 1.443 .      S
C1517 H933  1.077 .      S
C1518 H934  1.063 .      S
C1519 H935  1.067 .      S
C1520 H936  1.058 .      S
Br118 C1522 1.829 .      S
C1523 H937  1.035 .      S
C1524 H938  1.063 .      S
C1525 H939  1.077 .      S
C1526 H940  1.043 .      S
C1527 C1528 1.434 .      S
C1530 H941  1.067 .      S
C1531 H942  1.079 .      S
C1532 H943  1.081 .      S
C1533 H944  1.080 .      S
Br119 C1535 1.904 1_545  S
C1535 Br119 1.904 1_565  S
C1536 H945  1.069 .      S
C1537 H946  1.076 1_565  S
C1538 H947  1.071 .      S
C1539 H948  1.071 .      S
C1540 C1541 1.414 .      S
C1543 H949  1.076 .      S
C1544 H950  1.081 .      S
C1545 H951  1.081 .      S
C1546 H952  1.053 .      S
H946  C1537 1.076 1_545  S
Br120 C1548 1.891 .      S
C1549 H953  1.068 .      S
C1550 H954  1.061 .      S
C1551 H955  1.074 .      S
C1552 H956  1.073 .      S
C1553 C1554 1.428 .      S
C1556 H957  1.046 .      S
C1557 H958  1.067 .      S
C1558 H959  1.076 .      S
C1559 H960  1.074 .      S
Br121 C1561 1.874 .      S
C1562 H961  1.067 .      S
C1563 H962  1.078 .      S
C1564 H963  1.073 .      S
C1565 H964  1.080 .      S
C1566 C1567 1.449 .      S
C1569 H965  1.074 .      S
C1570 H966  1.081 .      S
C1571 H967  1.081 .      S
C1572 H968  1.074 .      S
Br122 C1574 1.762 .      S
C1575 H969  1.079 .      S
C1576 H970  1.075 .      S
C1577 H971  1.072 .      S
C1578 H972  1.052 .      S
C1579 C1580 1.480 .      S
C1582 H973  1.075 .      S
C1583 H974  1.079 .      S
C1584 H975  1.081 .      S
C1585 H976  1.068 .      S
Br123 C1587 1.851 .      S
C1588 H977  1.073 .      S
C1589 H978  1.072 1_545  S
C1590 H979  1.060 1_545  S
C1591 H980  1.074 .      S
C1592 C1593 1.460 .      S
C1595 H981  1.063 .      S
C1596 H982  1.063 .      S
C1597 H983  1.072 .      S
C1598 H984  1.051 .      S
H978  C1589 1.072 1_565  S
H979  C1590 1.060 1_565  S
Br124 C1600 1.874 .      S
C1601 H985  1.079 .      S
C1602 H986  1.081 .      S
C1603 H987  1.080 .      S
C1604 H988  1.070 .      S
C1605 C1606 1.484 .      S
C1608 H989  1.060 .      S
C1609 H990  1.076 .      S
C1610 H991  1.080 .      S
C1611 H992  1.068 .      S
Br125 C1613 1.880 .      S
C1614 H993  1.075 .      S
C1615 H994  1.074 .      S
C1616 H995  1.070 .      S
C1617 H996  1.080 .      S
C1618 C1619 1.442 1_565  S
C1619 C1618 1.442 1_545  S
C1621 H997  1.072 .      S
C1622 H998  1.078 .      S
C1623 H999  1.075 .      S
C1624 H1000 1.051 .      S
Br126 C1626 1.889 .      S
C1627 H1001 1.080 .      S
C1628 H1002 1.081 .      S
C1629 H1003 1.081 .      S
C1630 H1004 1.070 .      S
C1631 C1632 1.482 .      S
C1634 H1005 1.074 .      S
C1635 H1006 1.074 .      S
C1636 H1007 1.057 .      S
C1637 H1008 1.072 .      S
Br127 C1639 1.871 .      S
C1640 H1009 1.074 .      S
C1641 H1010 1.077 .      S
C1642 H1011 1.066 .      S
C1643 H1012 1.075 .      S
C1644 C1645 1.417 .      S
C1647 H1013 1.074 .      S
C1648 H1014 1.078 .      S
C1649 H1015 1.064 .      S
C1650 H1016 1.072 .      S
Br128 C1652 1.856 .      S
C1653 H1017 1.071 .      S
C1654 H1018 1.070 .      S
C1655 H1019 1.059 .      S
C1656 H1020 1.080 .      S
C1657 C1658 1.435 .      S
C1660 H1021 1.079 .      S
C1661 H1022 1.073 .      S
C1662 H1023 1.080 .      S
C1663 H1024 1.072 1_565  S
N256  Zn61  2.218 1_565  S
H1024 C1663 1.072 1_545  S
Br129 C1665 1.860 .      S
C1666 H1025 1.074 .      S
C1667 H1026 1.075 .      S
C1668 H1027 1.081 .      S
C1669 H1028 1.068 .      S
C1670 C1671 1.456 .      S
C1673 H1029 1.079 .      S
C1674 H1030 1.079 .      S
C1675 H1031 1.062 .      S
C1676 H1032 1.071 .      S
Br130 C1678 1.875 1_545  S
C1678 Br130 1.875 1_565  S
C1679 H1033 1.081 .      S
C1680 H1034 1.081 .      S
C1681 H1035 1.080 .      S
C1682 H1036 1.071 .      S
C1683 C1684 1.486 .      S
C1686 H1037 1.077 .      S
C1687 H1038 1.053 .      S
C1688 H1039 1.073 .      S
C1689 H1040 1.072 .      S
Br131 C1691 1.893 1_655  S
C1691 Br131 1.893 1_455  S
C1692 H1041 1.059 1_455  S
C1693 H1042 1.080 1_455  S
C1694 H1043 1.075 .      S
C1695 H1044 1.076 .      S
C1696 C1697 1.449 .      S
N261  Zn51  2.192 1_455  S
C1699 H1045 1.078 1_455  S
C1700 H1046 1.080 .      S
C1701 H1047 1.081 .      S
C1702 H1048 1.054 .      S
H1041 C1692 1.059 1_655  S
H1042 C1693 1.080 1_655  S
H1045 C1699 1.078 1_655  S
Br132 C1704 1.898 1_655  S
C1704 Br132 1.898 1_455  S
C1705 H1049 1.078 .      S
C1706 H1050 1.075 .      S
C1707 H1051 1.064 .      S
C1708 H1052 1.081 .      S
C1709 C1710 1.425 1_455  S
C1710 C1709 1.425 1_655  S
C1712 H1053 1.055 .      S
C1713 H1054 1.081 .      S
C1714 H1055 1.081 .      S
C1715 H1056 1.068 .      S
Br133 C1717 1.866 1_655  S
C1717 Br133 1.866 1_455  S
C1718 H1057 1.064 .      S
C1719 H1058 1.074 .      S
C1720 H1059 1.079 .      S
C1721 H1060 1.072 .      S
C1722 C1723 1.437 1_455  S
C1723 C1722 1.437 1_655  S
C1725 H1061 1.046 .      S
C1726 H1062 1.081 .      S
C1727 H1063 1.081 .      S
C1728 H1064 1.052 .      S
Br134 C1730 1.896 .      S
C1731 H1065 1.056 1_455  S
C1732 H1066 1.072 .      S
C1733 H1067 1.080 .      S
C1734 H1068 1.067 .      S
C1735 C1736 1.416 .      S
N267  Zn69  2.351 1_455  S
C1738 H1069 1.062 .      S
C1739 H1070 1.081 .      S
C1740 H1071 1.081 .      S
C1741 H1072 1.069 .      S
H1065 C1731 1.056 1_655  S
Br135 C1743 1.893 1_545  S
C1743 Br135 1.893 1_565  S
C1744 H1073 1.081 .      S
C1745 H1074 1.081 .      S
C1746 H1075 1.074 .      S
C1747 H1076 1.076 .      S
C1748 C1749 1.473 .      S
N269  Zn60  2.299 1_565  S
C1751 H1077 1.061 .      S
C1752 H1078 1.058 .      S
C1753 H1079 1.065 .      S
C1754 H1080 1.064 .      S
Br136 C1756 1.890 .      S
C1757 H1081 1.030 .      S
C1758 H1082 1.067 .      S
C1759 H1083 1.058 .      S
C1760 H1084 1.071 .      S
C1761 C1762 1.398 .      S
C1764 H1085 1.074 .      S
C1765 H1086 1.078 .      S
C1766 H1087 1.070 .      S
C1767 H1088 1.045 .      S
Br137 C1769 1.901 .      S
C1770 H1089 1.081 .      S
C1771 H1090 1.081 .      S
C1772 H1091 1.080 .      S
C1773 H1092 1.068 .      S
C1774 C1775 1.468 .      S
C1777 H1093 1.043 .      S
C1778 H1094 1.075 .      S
C1779 H1095 1.058 .      S
C1780 H1096 1.052 .      S
Br138 C1782 1.869 .      S
C1783 H1097 1.068 .      S
C1784 H1098 1.074 .      S
C1785 H1099 1.062 .      S
C1786 H1100 1.078 .      S
C1787 C1788 1.455 .      S
C1790 H1101 1.064 .      S
C1791 H1102 1.081 .      S
C1792 H1103 1.080 .      S
C1793 H1104 1.076 .      S
Br139 C1795 1.843 .      S
C1796 H1105 1.081 .      S
C1797 H1106 1.078 .      S
C1798 H1107 1.071 .      S
C1799 H1108 1.060 .      S
C1800 C1801 1.467 .      S
C1803 H1109 1.064 .      S
C1804 H1110 1.073 .      S
C1805 H1111 1.075 .      S
C1806 H1112 1.080 .      S
Br140 C1808 1.887 .      S
C1809 H1113 1.081 .      S
C1810 H1114 1.079 .      S
C1811 H1115 1.079 .      S
C1812 H1116 1.081 .      S
C1813 C1814 1.464 .      S
C1816 H1117 1.066 .      S
C1817 H1118 1.081 .      S
C1818 H1119 1.078 .      S
C1819 H1120 1.078 1_455  S
N280  Zn16  2.224 1_455  S
H1120 C1819 1.078 1_655  S
Br141 C1821 1.905 .      S
C1822 H1121 1.081 .      S
C1823 H1122 1.081 .      S
C1824 H1123 1.079 .      S
C1825 H1124 1.077 .      S
C1826 C1827 1.458 .      S
C1829 H1125 1.052 .      S
C1830 H1126 1.078 .      S
C1831 H1127 1.074 .      S
C1832 H1128 1.077 .      S
Br142 C1834 1.886 .      S
C1835 H1129 1.081 .      S
C1836 H1130 1.081 .      S
C1837 H1131 1.081 .      S
C1838 H1132 1.078 .      S
C1839 C1840 1.478 .      S
C1842 H1133 1.061 .      S
C1843 H1134 1.078 .      S
C1844 H1135 1.077 .      S
C1845 H1136 1.075 .      S
Br143 C1847 1.876 .      S
C1848 H1137 1.072 .      S
C1849 H1138 1.081 .      S
C1850 H1139 1.064 .      S
C1851 H1140 1.064 .      S
C1852 C1853 1.447 .      S
C1855 H1141 1.064 .      S
C1856 H1142 1.081 .      S
C1857 H1143 1.081 .      S
C1858 H1144 1.077 1_455  S
N286  Zn15  2.228 1_455  S
H1144 C1858 1.077 1_655  S
Br144 C1860 1.898 .      S
C1861 H1145 1.072 .      S
C1862 H1146 1.074 .      S
C1863 H1147 1.080 .      S
C1864 H1148 1.079 .      S
C1865 C1866 1.421 .      S
C1868 H1149 1.066 .      S
C1869 H1150 1.076 .      S
C1870 H1151 1.075 .      S
C1871 H1152 1.064 .      S
C1    C2    1.361 .      A
C1    C6    1.373 .      A
C2    C3    1.353 .      A
C3    C4    1.362 .      A
C4    C5    1.366 .      A
C5    C6    1.378 .      A
C7    N1    1.380 .      A
C7    N2    1.405 .      A
N1    C8    1.324 .      A
C8    C9    1.358 .      A
C8    C13   1.354 .      A
C9    C10   1.370 .      A
C10   C11   1.371 .      A
C11   C12   1.374 .      A
C12   C13   1.369 .      A
C13   N2    1.366 .      A
C14   C15   1.381 .      A
C14   C19   1.397 .      A
C15   C16   1.367 .      A
C16   C17   1.365 .      A
C17   C18   1.381 .      A
C18   C19   1.376 .      A
C20   N3    1.416 .      A
C20   N4    1.414 .      A
N3    C21   1.339 .      A
C21   C22   1.337 .      A
C21   C26   1.352 .      A
C22   C23   1.383 .      A
C23   C24   1.358 .      A
C24   C25   1.358 .      A
C25   C26   1.353 .      A
C26   N4    1.322 .      A
C27   C28   1.351 .      A
C27   C32   1.377 .      A
C28   C29   1.350 .      A
C29   C30   1.368 .      A
C30   C31   1.363 .      A
C31   C32   1.382 .      A
C33   N5    1.421 .      A
C33   N6    1.405 1_565  A
N5    C34   1.361 1_565  A
C34   N5    1.361 1_545  A
C34   C35   1.368 .      A
C34   C39   1.375 .      A
C35   C36   1.381 .      A
C36   C37   1.385 .      A
C37   C38   1.383 .      A
C38   C39   1.373 .      A
C39   N6    1.341 .      A
N6    C33   1.405 1_545  A
C40   C41   1.350 .      A
C40   C45   1.336 .      A
C41   C42   1.366 .      A
C42   C43   1.355 .      A
C43   C44   1.361 .      A
C44   C45   1.367 .      A
C46   N7    1.429 .      A
C46   N8    1.382 .      A
N7    C47   1.331 .      A
C47   C48   1.362 .      A
C47   C52   1.355 .      A
C48   C49   1.368 .      A
C49   C50   1.377 .      A
C50   C51   1.382 .      A
C51   C52   1.322 .      A
C52   N8    1.350 .      A
C53   C54   1.372 1_545  A
C53   C58   1.354 1_545  A
C54   C53   1.372 1_565  A
C54   C55   1.378 .      A
C55   C56   1.375 .      A
C56   C57   1.380 .      A
C57   C58   1.375 .      A
C58   C53   1.354 1_565  A
C59   N9    1.426 .      A
C59   N10   1.407 1_545  A
N9    C60   1.371 .      A
C60   C61   1.375 .      A
C60   C65   1.371 1_545  A
C61   C62   1.383 1_655  A
C62   C61   1.383 1_455  A
C62   C63   1.372 1_445  A
C63   C62   1.372 1_665  A
C63   C64   1.369 .      A
C64   C65   1.363 .      A
C65   C60   1.371 1_565  A
C65   N10   1.336 .      A
N10   C59   1.407 1_565  A
C66   C67   1.361 .      A
C66   C71   1.370 .      A
C67   C68   1.373 .      A
C68   C69   1.365 .      A
C69   C70   1.371 .      A
C70   C71   1.361 .      A
C72   N11   1.426 .      A
C72   N12   1.424 .      A
N11   C73   1.357 .      A
C73   C74   1.375 .      A
C73   C78   1.388 .      A
C74   C75   1.376 .      A
C75   C76   1.377 .      A
C76   C77   1.368 .      A
C77   C78   1.356 .      A
C78   N12   1.344 .      A
C79   C80   1.368 .      A
C79   C84   1.386 .      A
C80   C81   1.368 .      A
C81   C82   1.361 .      A
C82   C83   1.376 .      A
C83   C84   1.374 .      A
C85   N13   1.403 .      A
C85   N14   1.400 .      A
N13   C86   1.359 .      A
C86   C87   1.372 .      A
C86   C91   1.365 .      A
C87   C88   1.386 .      A
C88   C89   1.378 .      A
C89   C90   1.370 .      A
C90   C91   1.349 .      A
C91   N14   1.331 .      A
C92   C93   1.367 .      A
C92   C97   1.368 .      A
C93   C94   1.366 .      A
C94   C95   1.381 .      A
C95   C96   1.374 .      A
C96   C97   1.353 .      A
C98   N15   1.406 .      A
C98   N16   1.411 .      A
N15   C99   1.340 .      A
C99   C100  1.362 .      A
C99   C104  1.375 .      A
C100  C101  1.378 .      A
C101  C102  1.383 .      A
C102  C103  1.377 .      A
C103  C104  1.365 .      A
C104  N16   1.345 .      A
C105  C106  1.365 .      A
C105  C110  1.373 .      A
C106  C107  1.358 .      A
C107  C108  1.366 .      A
C108  C109  1.375 .      A
C109  C110  1.370 .      A
C111  N17   1.417 .      A
C111  N18   1.416 .      A
N17   C112  1.343 .      A
C112  C113  1.369 .      A
C112  C117  1.377 .      A
C113  C114  1.376 .      A
C114  C115  1.381 .      A
C115  C116  1.381 .      A
C116  C117  1.364 .      A
C117  N18   1.355 .      A
C118  C119  1.372 .      A
C118  C123  1.375 1_545  A
C119  C120  1.370 1_545  A
C120  C119  1.370 1_565  A
C120  C121  1.368 .      A
C121  C122  1.368 .      A
C122  C123  1.376 .      A
C123  C118  1.375 1_565  A
C124  N19   1.407 .      A
C124  N20   1.413 .      A
N19   C125  1.352 .      A
C125  C126  1.366 .      A
C125  C130  1.371 .      A
C126  C127  1.372 .      A
C127  C128  1.369 .      A
C128  C129  1.379 .      A
C129  C130  1.367 .      A
C130  N20   1.343 .      A
C131  C132  1.340 .      A
C131  C136  1.362 .      A
C132  C133  1.376 .      A
C133  C134  1.365 .      A
C134  C135  1.363 .      A
C135  C136  1.365 .      A
C137  N21   1.411 .      A
C137  N22   1.392 .      A
N21   C138  1.328 .      A
C138  C139  1.360 .      A
C138  C143  1.370 .      A
C139  C140  1.372 .      A
C140  C141  1.374 .      A
C141  C142  1.376 .      A
C142  C143  1.353 .      A
C143  N22   1.361 .      A
C144  C145  1.369 .      A
C144  C149  1.360 .      A
C145  C146  1.376 .      A
C146  C147  1.375 .      A
C147  C148  1.373 .      A
C148  C149  1.378 .      A
C150  N23   1.409 .      A
C150  N24   1.412 .      A
N23   C151  1.351 .      A
C151  C152  1.357 .      A
C151  C156  1.374 .      A
C152  C153  1.387 .      A
C153  C154  1.380 .      A
C154  C155  1.371 .      A
C155  C156  1.365 .      A
C156  N24   1.332 .      A
C157  C158  1.366 .      A
C157  C162  1.377 .      A
C158  C159  1.376 .      A
C159  C160  1.360 .      A
C160  C161  1.354 .      A
C161  C162  1.352 .      A
C163  N25   1.401 .      A
C163  N26   1.398 .      A
N25   C164  1.329 .      A
C164  C165  1.358 .      A
C164  C169  1.361 .      A
C165  C166  1.372 1_565  A
C166  C165  1.372 1_545  A
C166  C167  1.373 .      A
C167  C168  1.372 1_545  A
C168  C167  1.372 1_565  A
C168  C169  1.355 .      A
C169  N26   1.357 .      A
C170  C171  1.384 .      A
C170  C175  1.355 .      A
C171  C172  1.374 .      A
C172  C173  1.372 .      A
C173  C174  1.369 .      A
C174  C175  1.374 .      A
C176  N27   1.401 .      A
C176  N28   1.429 .      A
N27   C177  1.322 .      A
C177  C178  1.331 .      A
C177  C182  1.369 .      A
C178  C179  1.339 .      A
C179  C180  1.375 .      A
C180  C181  1.374 .      A
C181  C182  1.364 .      A
C182  N28   1.339 .      A
C183  C184  1.377 .      A
C183  C188  1.345 .      A
C184  C185  1.380 .      A
C185  C186  1.377 .      A
C186  C187  1.381 .      A
C187  C188  1.369 .      A
C189  N29   1.404 .      A
C189  N30   1.401 .      A
N29   C190  1.339 .      A
C190  C191  1.355 .      A
C190  C195  1.366 .      A
C191  C192  1.366 .      A
C192  C193  1.393 .      A
C193  C194  1.367 .      A
C194  C195  1.352 .      A
C195  N30   1.330 .      A
C196  C197  1.380 .      A
C196  C201  1.405 .      A
C197  C198  1.369 .      A
C198  C199  1.365 .      A
C199  C200  1.375 .      A
C200  C201  1.389 .      A
C202  N31   1.415 .      A
C202  N32   1.432 1_545  A
N31   C203  1.338 .      A
C203  C204  1.350 .      A
C203  C208  1.367 .      A
C204  C205  1.360 .      A
C205  C206  1.373 .      A
C206  C207  1.383 1_545  A
C207  C206  1.383 1_565  A
C207  C208  1.369 1_565  A
C208  C207  1.369 1_545  A
C208  N32   1.341 1_545  A
N32   C202  1.432 1_565  A
N32   C208  1.341 1_565  A
C209  C210  1.353 .      A
C209  C214  1.382 .      A
C210  C211  1.372 .      A
C211  C212  1.356 .      A
C212  C213  1.357 .      A
C213  C214  1.374 .      A
C215  N33   1.433 .      A
C215  N34   1.415 .      A
N33   C216  1.332 .      A
C216  C217  1.347 .      A
C216  C221  1.382 .      A
C217  C218  1.363 .      A
C218  C219  1.390 .      A
C219  C220  1.366 .      A
C220  C221  1.353 .      A
C221  N34   1.334 .      A
C222  C223  1.376 .      A
C222  C227  1.392 .      A
C223  C224  1.364 .      A
C224  C225  1.367 .      A
C225  C226  1.374 .      A
C226  C227  1.370 .      A
C228  N35   1.435 .      A
C228  N36   1.429 .      A
N35   C229  1.360 .      A
C229  C230  1.374 .      A
C229  C234  1.369 .      A
C230  C231  1.371 .      A
C231  C232  1.369 .      A
C232  C233  1.367 .      A
C233  C234  1.351 .      A
C234  N36   1.337 .      A
C235  C236  1.347 .      A
C235  C240  1.367 .      A
C236  C237  1.357 .      A
C237  C238  1.355 .      A
C238  C239  1.328 .      A
C239  C240  1.361 .      A
C241  N37   1.393 .      A
C241  N38   1.420 .      A
N37   C242  1.343 .      A
C242  C243  1.362 .      A
C242  C247  1.383 .      A
C243  C244  1.373 .      A
C244  C245  1.382 .      A
C245  C246  1.365 .      A
C246  C247  1.356 .      A
C247  N38   1.339 .      A
C248  C249  1.363 .      A
C248  C253  1.392 .      A
C249  C250  1.357 .      A
C250  C251  1.353 .      A
C251  C252  1.380 .      A
C252  C253  1.369 .      A
C254  N39   1.428 .      A
C254  N40   1.430 .      A
N39   C255  1.345 .      A
C255  C256  1.375 .      A
C255  C260  1.376 .      A
C256  C257  1.382 .      A
C257  C258  1.387 .      A
C258  C259  1.375 .      A
C259  C260  1.357 .      A
C260  N40   1.349 .      A
C261  C262  1.366 .      A
C261  C266  1.381 .      A
C262  C263  1.361 .      A
C263  C264  1.379 .      A
C264  C265  1.361 .      A
C265  C266  1.363 .      A
C267  N41   1.417 .      A
C267  N42   1.411 .      A
N41   C268  1.359 .      A
C268  C269  1.371 .      A
C268  C273  1.383 .      A
C269  C270  1.382 .      A
C270  C271  1.384 .      A
C271  C272  1.382 .      A
C272  C273  1.367 .      A
C273  N42   1.342 .      A
C274  C275  1.376 .      A
C274  C279  1.373 .      A
C275  C276  1.377 .      A
C276  C277  1.375 .      A
C277  C278  1.377 .      A
C278  C279  1.382 .      A
C280  N43   1.434 .      A
C280  N44   1.432 .      A
N43   C281  1.335 .      A
C281  C282  1.360 .      A
C281  C286  1.381 .      A
C282  C283  1.356 .      A
C283  C284  1.376 .      A
C284  C285  1.381 .      A
C285  C286  1.345 .      A
C286  N44   1.347 .      A
C287  C288  1.348 .      A
C287  C292  1.339 .      A
C288  C289  1.365 1_565  A
C289  C288  1.365 1_545  A
C289  C290  1.371 1_545  A
C290  C289  1.371 1_565  A
C290  C291  1.347 .      A
C291  C292  1.370 .      A
C293  N45   1.388 .      A
C293  N46   1.404 .      A
N45   C294  1.338 .      A
C294  C295  1.363 .      A
C294  C299  1.366 .      A
C295  C296  1.370 .      A
C296  C297  1.385 .      A
C297  C298  1.380 .      A
C298  C299  1.352 .      A
C299  N46   1.349 .      A
C300  C301  1.375 .      A
C300  C305  1.380 .      A
C301  C302  1.367 .      A
C302  C303  1.363 .      A
C303  C304  1.383 .      A
C304  C305  1.363 .      A
C306  N47   1.427 .      A
C306  N48   1.405 .      A
N47   C307  1.353 .      A
C307  C308  1.365 .      A
C307  C312  1.368 .      A
C308  C309  1.382 .      A
C309  C310  1.379 .      A
C310  C311  1.359 .      A
C311  C312  1.354 .      A
C312  N48   1.322 .      A
C313  C314  1.386 .      A
C313  C318  1.347 .      A
C314  C315  1.371 1_655  A
C315  C314  1.371 1_455  A
C315  C316  1.369 .      A
C316  C317  1.356 .      A
C317  C318  1.352 1_455  A
C318  C317  1.352 1_655  A
C319  N49   1.424 .      A
C319  N50   1.407 .      A
N49   C320  1.351 .      A
C320  C321  1.365 .      A
C320  C325  1.381 .      A
C321  C322  1.363 .      A
C322  C323  1.377 .      A
C323  C324  1.378 .      A
C324  C325  1.369 .      A
C325  N50   1.350 .      A
C326  C327  1.370 .      A
C326  C331  1.360 1_655  A
C327  C328  1.367 .      A
C328  C329  1.360 1_655  A
C329  C328  1.360 1_455  A
C329  C330  1.365 .      A
C330  C331  1.355 .      A
C331  C326  1.360 1_455  A
C332  N51   1.419 1_455  A
C332  N52   1.422 .      A
N51   C332  1.419 1_655  A
N51   C333  1.327 1_655  A
C333  N51   1.327 1_455  A
C333  C334  1.358 1_455  A
C333  C338  1.371 .      A
C334  C333  1.358 1_655  A
C334  C335  1.375 1_655  A
C335  C334  1.375 1_455  A
C335  C336  1.376 .      A
C336  C337  1.362 .      A
C337  C338  1.342 .      A
C338  N52   1.356 .      A
C339  C340  1.380 .      A
C339  C344  1.361 .      A
C340  C341  1.371 .      A
C341  C342  1.372 .      A
C342  C343  1.378 .      A
C343  C344  1.378 .      A
C345  N53   1.421 .      A
C345  N54   1.429 .      A
N53   C346  1.326 .      A
C346  C347  1.339 .      A
C346  C351  1.369 .      A
C347  C348  1.363 .      A
C348  C349  1.365 .      A
C349  C350  1.351 .      A
C350  C351  1.363 .      A
C351  N54   1.348 .      A
C352  C353  1.356 1_655  A
C352  C357  1.352 .      A
C353  C352  1.356 1_455  A
C353  C354  1.367 1_455  A
C354  C353  1.367 1_655  A
C354  C355  1.366 .      A
C355  C356  1.360 .      A
C356  C357  1.370 .      A
C358  N55   1.417 .      A
C358  N56   1.415 .      A
N55   C359  1.343 .      A
C359  C360  1.356 .      A
C359  C364  1.378 .      A
C360  C361  1.384 .      A
C361  C362  1.387 .      A
C362  C363  1.386 .      A
C363  C364  1.367 .      A
C364  N56   1.348 .      A
C365  C366  1.378 .      A
C365  C370  1.379 1_554  A
C366  C367  1.369 1_554  A
C367  C366  1.369 1_556  A
C367  C368  1.374 .      A
C368  C369  1.373 .      A
C369  C370  1.375 .      A
C370  C365  1.379 1_556  A
C371  N57   1.418 1_455  A
C371  N58   1.431 .      A
N57   C371  1.418 1_655  A
N57   C372  1.342 1_656  A
C372  N57   1.342 1_454  A
C372  C373  1.354 1_455  A
C372  C377  1.372 .      A
C373  C372  1.354 1_655  A
C373  C374  1.382 1_655  A
C374  C373  1.382 1_455  A
C374  C375  1.384 .      A
C375  C376  1.369 .      A
C376  C377  1.353 .      A
C377  N58   1.338 1_554  A
N58   C377  1.338 1_556  A
C378  C379  1.376 .      A
C378  C383  1.363 .      A
C379  C380  1.371 .      A
C380  C381  1.373 .      A
C381  C382  1.377 .      A
C382  C383  1.378 .      A
C384  N59   1.410 .      A
C384  N60   1.412 .      A
N59   C385  1.340 .      A
C385  C386  1.362 .      A
C385  C390  1.370 .      A
C386  C387  1.378 1_545  A
C387  C386  1.378 1_565  A
C387  C388  1.383 1_565  A
C388  C387  1.383 1_545  A
C388  C389  1.383 .      A
C389  C390  1.371 .      A
C390  N60   1.354 .      A
C391  C392  1.367 1_455  A
C391  C396  1.365 .      A
C392  C391  1.367 1_655  A
C392  C393  1.380 .      A
C393  C394  1.356 .      A
C394  C395  1.361 1_565  A
C395  C394  1.361 1_545  A
C395  C396  1.353 1_645  A
C396  C395  1.353 1_465  A
C397  N61   1.421 .      A
C397  N62   1.420 1_455  A
N61   C398  1.332 .      A
C398  C399  1.368 .      A
C398  C403  1.373 .      A
C399  C400  1.373 .      A
C400  C401  1.364 .      A
C401  C402  1.374 .      A
C402  C403  1.345 .      A
C403  N62   1.353 1_455  A
N62   C397  1.420 1_655  A
N62   C403  1.353 1_655  A
C404  C405  1.372 .      A
C404  C409  1.388 .      A
C405  C406  1.368 .      A
C406  C407  1.369 .      A
C407  C408  1.378 .      A
C408  C409  1.365 .      A
C410  N63   1.411 .      A
C410  N64   1.406 .      A
N63   C411  1.343 .      A
C411  C412  1.360 .      A
C411  C416  1.369 .      A
C412  C413  1.383 .      A
C413  C414  1.373 .      A
C414  C415  1.372 .      A
C415  C416  1.358 .      A
C416  N64   1.340 .      A
C417  C418  1.373 .      A
C417  C422  1.362 .      A
C418  C419  1.373 1_545  A
C419  C418  1.373 1_565  A
C419  C420  1.372 .      A
C420  C421  1.379 .      A
C421  C422  1.363 1_565  A
C422  C421  1.363 1_545  A
C423  N65   1.432 .      A
C423  N66   1.429 .      A
N65   C424  1.337 .      A
C424  C425  1.345 .      A
C424  C429  1.376 .      A
C425  C426  1.363 .      A
C426  C427  1.370 1_545  A
C427  C426  1.370 1_565  A
C427  C428  1.383 .      A
C428  C429  1.351 1_565  A
C429  C428  1.351 1_545  A
C429  N66   1.341 .      A
C430  C431  1.354 .      A
C430  C435  1.353 .      A
C431  C432  1.366 .      A
C432  C433  1.372 .      A
C433  C434  1.376 .      A
C434  C435  1.376 .      A
C436  N67   1.385 .      A
C436  N68   1.423 .      A
N67   C437  1.332 .      A
C437  C438  1.374 .      A
C437  C442  1.363 .      A
C438  C439  1.381 .      A
C439  C440  1.386 .      A
C440  C441  1.385 .      A
C441  C442  1.364 .      A
C442  N68   1.365 .      A
C443  C444  1.378 .      A
C443  C448  1.371 .      A
C444  C445  1.365 .      A
C445  C446  1.361 .      A
C446  C447  1.379 .      A
C447  C448  1.366 .      A
C449  N69   1.397 .      A
C449  N70   1.400 .      A
N69   C450  1.349 .      A
C450  C451  1.359 .      A
C450  C455  1.362 .      A
C451  C452  1.388 .      A
C452  C453  1.367 .      A
C453  C454  1.369 .      A
C454  C455  1.367 .      A
C455  N70   1.346 .      A
C456  C457  1.369 .      A
C456  C461  1.350 .      A
C457  C458  1.367 .      A
C458  C459  1.365 .      A
C459  C460  1.372 .      A
C460  C461  1.371 .      A
C462  N71   1.394 .      A
C462  N72   1.398 .      A
N71   C463  1.358 .      A
C463  C464  1.369 .      A
C463  C468  1.363 .      A
C464  C465  1.378 .      A
C465  C466  1.380 .      A
C466  C467  1.380 .      A
C467  C468  1.363 .      A
C468  N72   1.340 .      A
C469  C470  1.348 .      A
C469  C474  1.357 .      A
C470  C471  1.361 .      A
C471  C472  1.361 .      A
C472  C473  1.366 .      A
C473  C474  1.374 .      A
C475  N73   1.415 .      A
C475  N74   1.397 .      A
N73   C476  1.360 .      A
C476  C477  1.358 .      A
C476  C481  1.370 .      A
C477  C478  1.373 .      A
C478  C479  1.380 .      A
C479  C480  1.373 .      A
C480  C481  1.368 .      A
C481  N74   1.331 .      A
C482  C483  1.374 .      A
C482  C487  1.369 .      A
C483  C484  1.368 .      A
C484  C485  1.376 .      A
C485  C486  1.370 .      A
C486  C487  1.370 .      A
C488  N75   1.391 .      A
C488  N76   1.383 .      A
N75   C489  1.343 .      A
C489  C490  1.370 .      A
C489  C494  1.367 .      A
C490  C491  1.381 .      A
C491  C492  1.387 .      A
C492  C493  1.386 .      A
C493  C494  1.367 .      A
C494  N76   1.346 .      A
C495  C496  1.353 .      A
C495  C500  1.366 .      A
C496  C497  1.362 .      A
C497  C498  1.382 .      A
C498  C499  1.362 .      A
C499  C500  1.358 .      A
C501  N77   1.383 .      A
C501  N78   1.382 .      A
N77   C502  1.362 .      A
C502  C503  1.371 .      A
C502  C507  1.374 .      A
C503  C504  1.385 .      A
C504  C505  1.388 .      A
C505  C506  1.381 .      A
C506  C507  1.375 .      A
C507  N78   1.347 .      A
C508  C509  1.371 .      A
C508  C513  1.368 .      A
C509  C510  1.369 .      A
C510  C511  1.362 .      A
C511  C512  1.372 .      A
C512  C513  1.364 .      A
C514  N79   1.389 .      A
C514  N80   1.406 .      A
N79   C515  1.351 .      A
C515  C516  1.369 .      A
C515  C520  1.365 .      A
C516  C517  1.379 .      A
C517  C518  1.379 .      A
C518  C519  1.379 .      A
C519  C520  1.368 .      A
C520  N80   1.355 .      A
C521  C522  1.369 .      A
C521  C526  1.378 .      A
C522  C523  1.368 .      A
C523  C524  1.358 .      A
C524  C525  1.354 .      A
C525  C526  1.360 .      A
C527  N81   1.407 .      A
C527  N82   1.409 .      A
N81   C528  1.357 .      A
C528  C529  1.358 .      A
C528  C533  1.365 .      A
C529  C530  1.376 .      A
C530  C531  1.378 .      A
C531  C532  1.379 .      A
C532  C533  1.377 .      A
C533  N82   1.345 .      A
C534  C535  1.371 .      A
C534  C539  1.320 .      A
C535  C536  1.364 .      A
C536  C537  1.360 .      A
C537  C538  1.353 .      A
C538  C539  1.353 .      A
C540  N83   1.392 .      A
C540  N84   1.409 .      A
N83   C541  1.361 .      A
C541  C542  1.369 .      A
C541  C546  1.381 .      A
C542  C543  1.386 .      A
C543  C544  1.385 .      A
C544  C545  1.380 .      A
C545  C546  1.371 .      A
C546  N84   1.348 .      A
C547  C548  1.366 .      A
C547  C552  1.360 .      A
C548  C549  1.340 .      A
C549  C550  1.356 .      A
C550  C551  1.374 .      A
C551  C552  1.374 .      A
C553  N85   1.423 .      A
C553  N86   1.397 .      A
N85   C554  1.356 .      A
C554  C555  1.359 .      A
C554  C559  1.368 .      A
C555  C556  1.368 .      A
C556  C557  1.368 .      A
C557  C558  1.374 .      A
C558  C559  1.360 .      A
C559  N86   1.333 .      A
C560  C561  1.360 .      A
C560  C565  1.360 .      A
C561  C562  1.375 .      A
C562  C563  1.349 .      A
C563  C564  1.359 .      A
C564  C565  1.350 .      A
C566  N87   1.420 .      A
C566  N88   1.405 .      A
N87   C567  1.361 .      A
C567  C568  1.371 .      A
C567  C572  1.381 .      A
C568  C569  1.376 .      A
C569  C570  1.374 .      A
C570  C571  1.375 .      A
C571  C572  1.362 .      A
C572  N88   1.346 .      A
C573  C574  1.380 .      A
C573  C578  1.385 .      A
C574  C575  1.373 .      A
C575  C576  1.372 .      A
C576  C577  1.379 .      A
C577  C578  1.385 .      A
C579  N89   1.441 .      A
C579  N90   1.417 .      A
N89   C580  1.351 .      A
C580  C581  1.364 1_545  A
C580  C585  1.362 .      A
C581  C580  1.364 1_565  A
C581  C582  1.369 .      A
C582  C583  1.370 1_565  A
C583  C582  1.370 1_545  A
C583  C584  1.365 .      A
C584  C585  1.353 .      A
C585  N90   1.333 .      A
C586  C587  1.370 .      A
C586  C591  1.368 .      A
C587  C588  1.376 .      A
C588  C589  1.371 .      A
C589  C590  1.371 .      A
C590  C591  1.374 .      A
C592  N91   1.408 .      A
C592  N92   1.413 .      A
N91   C593  1.340 1_545  A
C593  N91   1.340 1_565  A
C593  C594  1.370 .      A
C593  C598  1.380 .      A
C594  C595  1.371 .      A
C595  C596  1.379 .      A
C596  C597  1.387 .      A
C597  C598  1.376 .      A
C598  N92   1.367 1_565  A
N92   C598  1.367 1_545  A
C599  C600  1.336 .      A
C599  C604  1.353 .      A
C600  C601  1.376 1_565  A
C601  C600  1.376 1_545  A
C601  C602  1.358 .      A
C602  C603  1.361 .      A
C603  C604  1.370 1_545  A
C604  C603  1.370 1_565  A
C605  N93   1.400 .      A
C605  N94   1.386 .      A
N93   C606  1.342 .      A
C606  C607  1.350 .      A
C606  C611  1.369 .      A
C607  C608  1.383 .      A
C608  C609  1.367 .      A
C609  C610  1.366 .      A
C610  C611  1.356 .      A
C611  N94   1.342 .      A
C612  C613  1.376 .      A
C612  C617  1.381 .      A
C613  C614  1.368 .      A
C614  C615  1.371 .      A
C615  C616  1.385 .      A
C616  C617  1.363 .      A
C618  N95   1.405 .      A
C618  N96   1.408 .      A
N95   C619  1.350 .      A
C619  C620  1.377 1_565  A
C619  C624  1.356 .      A
C620  C619  1.377 1_545  A
C620  C621  1.366 .      A
C621  C622  1.371 .      A
C622  C623  1.372 1_545  A
C623  C622  1.372 1_565  A
C623  C624  1.357 .      A
C624  N96   1.344 .      A
C625  C626  1.364 .      A
C625  C630  1.375 .      A
C626  C627  1.344 .      A
C627  C628  1.359 .      A
C628  C629  1.367 .      A
C629  C630  1.357 .      A
C631  N97   1.428 .      A
C631  N98   1.424 .      A
N97   C632  1.340 .      A
C632  C633  1.365 .      A
C632  C637  1.373 .      A
C633  C634  1.371 .      A
C634  C635  1.381 .      A
C635  C636  1.385 .      A
C636  C637  1.365 .      A
C637  N98   1.346 .      A
C638  C639  1.377 .      A
C638  C643  1.399 .      A
C639  C640  1.369 .      A
C640  C641  1.371 .      A
C641  C642  1.381 .      A
C642  C643  1.364 .      A
C644  N99   1.404 .      A
C644  N100  1.416 .      A
N99   C645  1.334 .      A
C645  C646  1.372 .      A
C645  C650  1.374 .      A
C646  C647  1.377 .      A
C647  C648  1.374 .      A
C648  C649  1.378 .      A
C649  C650  1.373 .      A
C650  N100  1.369 .      A
C651  C652  1.317 .      A
C651  C656  1.379 .      A
C652  C653  1.309 .      A
C653  C654  1.356 .      A
C654  C655  1.327 .      A
C655  C656  1.359 .      A
C657  N101  1.393 .      A
C657  N102  1.405 .      A
N101  C658  1.348 .      A
C658  C659  1.359 .      A
C658  C663  1.373 .      A
C659  C660  1.374 .      A
C660  C661  1.386 .      A
C661  C662  1.374 .      A
C662  C663  1.370 .      A
C663  N102  1.341 .      A
C664  C665  1.380 .      A
C664  C669  1.358 .      A
C665  C666  1.379 .      A
C666  C667  1.380 .      A
C667  C668  1.380 .      A
C668  C669  1.379 .      A
C670  N103  1.424 1_565  A
C670  N104  1.420 .      A
N103  C670  1.424 1_545  A
N103  C671  1.349 .      A
C671  C672  1.365 .      A
C671  C676  1.380 1_545  A
C672  C673  1.380 .      A
C673  C674  1.387 1_545  A
C674  C673  1.387 1_565  A
C674  C675  1.380 .      A
C675  C676  1.372 .      A
C676  C671  1.380 1_565  A
C676  N104  1.352 .      A
C677  C678  1.357 .      A
C677  C682  1.392 .      A
C678  C679  1.355 .      A
C679  C680  1.369 .      A
C680  C681  1.337 .      A
C681  C682  1.340 .      A
C683  N105  1.390 .      A
C683  N106  1.395 .      A
N105  C684  1.364 .      A
C684  C685  1.368 .      A
C684  C689  1.376 .      A
C685  C686  1.377 .      A
C686  C687  1.378 .      A
C687  C688  1.380 .      A
C688  C689  1.368 .      A
C689  N106  1.331 .      A
C690  C691  1.381 .      A
C690  C695  1.367 .      A
C691  C692  1.375 .      A
C692  C693  1.369 .      A
C693  C694  1.375 .      A
C694  C695  1.381 .      A
C696  N107  1.407 1_545  A
C696  N108  1.419 .      A
N107  C696  1.407 1_565  A
N107  C697  1.325 1_565  A
C697  N107  1.325 1_545  A
C697  C698  1.349 1_545  A
C697  C702  1.361 .      A
C698  C697  1.349 1_565  A
C698  C699  1.364 .      A
C699  C700  1.361 1_565  A
C700  C699  1.361 1_545  A
C700  C701  1.380 .      A
C701  C702  1.362 .      A
C702  N108  1.347 .      A
C703  C704  1.368 1_565  A
C703  C708  1.372 .      A
C704  C703  1.368 1_545  A
C704  C705  1.357 1_545  A
C705  C704  1.357 1_565  A
C705  C706  1.364 .      A
C706  C707  1.371 .      A
C707  C708  1.369 .      A
C709  N109  1.389 .      A
C709  N110  1.406 .      A
N109  C710  1.319 .      A
C710  C711  1.359 .      A
C710  C715  1.357 .      A
C711  C712  1.373 .      A
C712  C713  1.374 .      A
C713  C714  1.389 .      A
C714  C715  1.359 .      A
C715  N110  1.363 .      A
C716  C717  1.338 .      A
C716  C721  1.378 .      A
C717  C718  1.346 .      A
C718  C719  1.338 .      A
C719  C720  1.372 .      A
C720  C721  1.385 .      A
C722  N111  1.393 .      A
C722  N112  1.437 .      A
N111  C723  1.339 .      A
C723  C724  1.360 1_565  A
C723  C728  1.359 .      A
C724  C723  1.360 1_545  A
C724  C725  1.370 .      A
C725  C726  1.377 .      A
C726  C727  1.364 1_545  A
C727  C726  1.364 1_565  A
C727  C728  1.361 .      A
C728  N112  1.340 .      A
C729  C730  1.371 .      A
C729  C734  1.368 .      A
C730  C731  1.375 .      A
C731  C732  1.368 .      A
C732  C733  1.372 .      A
C733  C734  1.372 .      A
C735  N113  1.406 .      A
C735  N114  1.425 .      A
N113  C736  1.344 .      A
C736  C737  1.365 .      A
C736  C741  1.377 .      A
C737  C738  1.377 .      A
C738  C739  1.384 .      A
C739  C740  1.382 .      A
C740  C741  1.362 .      A
C741  N114  1.347 .      A
C742  C743  1.368 .      A
C742  C747  1.356 .      A
C743  C744  1.378 .      A
C744  C745  1.363 .      A
C745  C746  1.366 .      A
C746  C747  1.377 .      A
C748  N115  1.424 .      A
C748  N116  1.400 .      A
N115  C749  1.355 .      A
C749  C750  1.362 .      A
C749  C754  1.363 .      A
C750  C751  1.381 .      A
C751  C752  1.370 .      A
C752  C753  1.338 .      A
C753  C754  1.323 .      A
C754  N116  1.307 .      A
C755  C756  1.380 .      A
C755  C760  1.393 .      A
C756  C757  1.370 .      A
C757  C758  1.369 .      A
C758  C759  1.377 .      A
C759  C760  1.383 .      A
C761  N117  1.426 .      A
C761  N118  1.419 .      A
N117  C762  1.338 .      A
C762  C763  1.340 .      A
C762  C767  1.360 .      A
C763  C764  1.351 .      A
C764  C765  1.369 .      A
C765  C766  1.371 .      A
C766  C767  1.363 .      A
C767  N118  1.333 .      A
C768  C769  1.356 .      A
C768  C773  1.335 .      A
C769  C770  1.374 .      A
C770  C771  1.367 .      A
C771  C772  1.373 .      A
C772  C773  1.374 .      A
C774  N119  1.409 .      A
C774  N120  1.378 .      A
N119  C775  1.364 .      A
C775  C776  1.363 .      A
C775  C780  1.372 .      A
C776  C777  1.384 .      A
C777  C778  1.375 .      A
C778  C779  1.364 .      A
C779  C780  1.364 .      A
C780  N120  1.325 .      A
C781  C782  1.380 .      A
C781  C786  1.362 1_655  A
C782  C783  1.374 .      A
C783  C784  1.366 .      A
C784  C785  1.370 1_655  A
C785  C784  1.370 1_455  A
C785  C786  1.378 .      A
C786  C781  1.362 1_455  A
C787  N121  1.408 .      A
C787  N122  1.410 .      A
N121  C788  1.340 .      A
C788  C789  1.369 .      A
C788  C793  1.363 .      A
C789  C790  1.378 .      A
C790  C791  1.386 .      A
C791  C792  1.382 .      A
C792  C793  1.351 .      A
C793  N122  1.344 .      A
C794  C795  1.373 .      A
C794  C799  1.352 .      A
C795  C796  1.374 .      A
C796  C797  1.373 .      A
C797  C798  1.369 .      A
C798  C799  1.374 .      A
C800  N123  1.405 .      A
C800  N124  1.412 .      A
N123  C801  1.358 .      A
C801  C802  1.367 .      A
C801  C806  1.376 .      A
C802  C803  1.379 .      A
C803  C804  1.378 .      A
C804  C805  1.373 .      A
C805  C806  1.375 .      A
C806  N124  1.351 .      A
C807  C808  1.374 .      A
C807  C812  1.339 .      A
C808  C809  1.373 1_545  A
C809  C808  1.373 1_565  A
C809  C810  1.376 .      A
C810  C811  1.360 .      A
C811  C812  1.360 1_565  A
C812  C811  1.360 1_545  A
C813  N125  1.415 1_655  A
C813  N126  1.408 .      A
N125  C813  1.415 1_455  A
N125  C814  1.345 1_455  A
C814  N125  1.345 1_655  A
C814  C815  1.363 .      A
C814  C819  1.384 .      A
C815  C816  1.376 .      A
C816  C817  1.378 .      A
C817  C818  1.385 .      A
C818  C819  1.374 .      A
C819  N126  1.361 .      A
C820  C821  1.353 .      A
C820  C825  1.378 .      A
C821  C822  1.361 .      A
C822  C823  1.352 .      A
C823  C824  1.365 .      A
C824  C825  1.367 .      A
C826  N127  1.433 .      A
C826  N128  1.432 .      A
N127  C827  1.353 .      A
C827  C828  1.342 .      A
C827  C832  1.376 .      A
C828  C829  1.360 1_545  A
C829  C828  1.360 1_565  A
C829  C830  1.379 1_565  A
C830  C829  1.379 1_545  A
C830  C831  1.371 .      A
C831  C832  1.361 .      A
C832  N128  1.325 .      A
C833  C834  1.368 .      A
C833  C838  1.366 .      A
C834  C835  1.360 .      A
C835  C836  1.370 .      A
C836  C837  1.357 .      A
C837  C838  1.354 .      A
C839  N129  1.418 .      A
C839  N130  1.415 1_565  A
N129  C840  1.353 .      A
C840  C841  1.369 .      A
C840  C845  1.380 1_565  A
C841  C842  1.385 .      A
C842  C843  1.382 .      A
C843  C844  1.368 1_565  A
C844  C843  1.368 1_545  A
C844  C845  1.359 .      A
C845  C840  1.380 1_545  A
C845  N130  1.344 .      A
N130  C839  1.415 1_545  A
C846  C847  1.376 .      A
C846  C851  1.374 .      A
C847  C848  1.373 .      A
C848  C849  1.367 .      A
C849  C850  1.379 .      A
C850  C851  1.367 .      A
C852  N131  1.420 .      A
C852  N132  1.420 .      A
N131  C853  1.358 .      A
C853  C854  1.361 .      A
C853  C858  1.373 .      A
C854  C855  1.384 .      A
C855  C856  1.378 .      A
C856  C857  1.360 .      A
C857  C858  1.350 .      A
C858  N132  1.324 .      A
C859  C860  1.349 .      A
C859  C864  1.378 .      A
C860  C861  1.364 .      A
C861  C862  1.357 .      A
C862  C863  1.364 .      A
C863  C864  1.375 .      A
C865  N133  1.411 .      A
C865  N134  1.408 .      A
N133  C866  1.343 .      A
C866  C867  1.353 .      A
C866  C871  1.370 .      A
C867  C868  1.383 .      A
C868  C869  1.367 .      A
C869  C870  1.356 .      A
C870  C871  1.357 .      A
C871  N134  1.339 .      A
C872  C873  1.368 .      A
C872  C877  1.365 .      A
C873  C874  1.375 .      A
C874  C875  1.363 .      A
C875  C876  1.369 .      A
C876  C877  1.394 .      A
C878  N135  1.429 .      A
C878  N136  1.405 .      A
N135  C879  1.366 .      A
C879  C880  1.374 .      A
C879  C884  1.370 .      A
C880  C881  1.382 .      A
C881  C882  1.384 .      A
C882  C883  1.380 .      A
C883  C884  1.370 .      A
C884  N136  1.334 .      A
C885  C886  1.367 .      A
C885  C890  1.382 .      A
C886  C887  1.344 .      A
C887  C888  1.348 .      A
C888  C889  1.353 .      A
C889  C890  1.360 .      A
C891  N137  1.440 .      A
C891  N138  1.394 .      A
N137  C892  1.356 .      A
C892  C893  1.378 .      A
C892  C897  1.382 .      A
C893  C894  1.383 .      A
C894  C895  1.386 .      A
C895  C896  1.383 .      A
C896  C897  1.373 .      A
C897  N138  1.357 .      A
C898  C899  1.363 .      A
C898  C903  1.359 .      A
C899  C900  1.365 .      A
C900  C901  1.363 .      A
C901  C902  1.363 .      A
C902  C903  1.366 .      A
C904  N139  1.407 .      A
C904  N140  1.410 .      A
N139  C905  1.338 .      A
C905  C906  1.361 .      A
C905  C910  1.364 .      A
C906  C907  1.372 .      A
C907  C908  1.374 .      A
C908  C909  1.387 .      A
C909  C910  1.355 .      A
C910  N140  1.349 .      A
C911  C912  1.369 .      A
C911  C916  1.374 .      A
C912  C913  1.374 .      A
C913  C914  1.367 .      A
C914  C915  1.375 .      A
C915  C916  1.379 .      A
C917  N141  1.405 .      A
C917  N142  1.416 .      A
N141  C918  1.332 .      A
C918  C919  1.350 .      A
C918  C923  1.352 .      A
C919  C920  1.353 .      A
C920  C921  1.376 .      A
C921  C922  1.362 .      A
C922  C923  1.351 .      A
C923  N142  1.337 .      A
C924  C925  1.355 .      A
C924  C929  1.346 .      A
C925  C926  1.365 .      A
C926  C927  1.359 .      A
C927  C928  1.366 .      A
C928  C929  1.347 .      A
C930  N143  1.397 .      A
C930  N144  1.393 .      A
N143  C931  1.333 .      A
C931  C932  1.353 .      A
C931  C936  1.359 .      A
C932  C933  1.366 .      A
C933  C934  1.383 .      A
C934  C935  1.387 .      A
C935  C936  1.358 .      A
C936  N144  1.344 .      A
C937  C938  1.373 .      A
C937  C942  1.369 .      A
C938  C939  1.369 .      A
C939  C940  1.362 .      A
C940  C941  1.369 .      A
C941  C942  1.382 .      A
C943  N145  1.394 .      A
C943  N146  1.400 .      A
N145  C944  1.328 .      A
C944  C945  1.369 .      A
C944  C949  1.354 .      A
C945  C946  1.377 .      A
C946  C947  1.379 .      A
C947  C948  1.385 .      A
C948  C949  1.351 .      A
C949  N146  1.359 .      A
C950  C951  1.383 .      A
C950  C955  1.361 .      A
C951  C952  1.371 .      A
C952  C953  1.367 .      A
C953  C954  1.379 .      A
C954  C955  1.377 .      A
C956  N147  1.425 .      A
C956  N148  1.400 .      A
N147  C957  1.360 .      A
C957  C958  1.357 .      A
C957  C962  1.366 .      A
C958  C959  1.382 .      A
C959  C960  1.381 .      A
C960  C961  1.379 .      A
C961  C962  1.370 .      A
C962  N148  1.335 .      A
C963  C964  1.350 .      A
C963  C968  1.354 .      A
C964  C965  1.362 .      A
C965  C966  1.369 .      A
C966  C967  1.365 .      A
C967  C968  1.347 .      A
C969  N149  1.385 .      A
C969  N150  1.387 .      A
N149  C970  1.338 .      A
C970  C971  1.366 .      A
C970  C975  1.366 .      A
C971  C972  1.384 .      A
C972  C973  1.391 .      A
C973  C974  1.383 .      A
C974  C975  1.367 .      A
C975  N150  1.353 .      A
C976  C977  1.365 .      A
C976  C981  1.356 .      A
C977  C978  1.373 1_455  A
C978  C977  1.373 1_655  A
C978  C979  1.365 .      A
C979  C980  1.365 1_655  A
C980  C979  1.365 1_455  A
C980  C981  1.363 .      A
C982  N151  1.433 .      A
C982  N152  1.419 1_455  A
N151  C983  1.343 1_556  A
C983  N151  1.343 1_554  A
C983  C984  1.367 .      A
C983  C988  1.390 1_554  A
C984  C985  1.373 1_545  A
C985  C984  1.373 1_565  A
C985  C986  1.381 .      A
C986  C987  1.379 1_455  A
C987  C986  1.379 1_655  A
C987  C988  1.360 1_664  A
C988  C983  1.390 1_556  A
C988  C987  1.360 1_446  A
C988  N152  1.352 1_455  A
N152  C982  1.419 1_655  A
N152  C988  1.352 1_655  A
C989  C990  1.377 .      A
C989  C994  1.380 .      A
C990  C991  1.374 .      A
C991  C992  1.372 .      A
C992  C993  1.374 .      A
C993  C994  1.368 .      A
C995  N153  1.422 1_554  A
C995  N154  1.402 1_554  A
N153  C995  1.422 1_556  A
N153  C996  1.346 .      A
C996  C997  1.359 .      A
C996  C1001 1.373 .      A
C997  C998  1.386 .      A
C998  C999  1.388 .      A
C999  C1000 1.367 .      A
C1000 C1001 1.354 .      A
C1001 N154  1.331 .      A
N154  C995  1.402 1_556  A
C1002 C1003 1.337 .      A
C1002 C1007 1.329 .      A
C1003 C1004 1.365 1_565  A
C1004 C1003 1.365 1_545  A
C1004 C1005 1.351 .      A
C1005 C1006 1.343 .      A
C1006 C1007 1.368 1_545  A
C1007 C1006 1.368 1_565  A
C1008 N155  1.417 .      A
C1008 N156  1.376 1_565  A
N155  C1009 1.340 1_565  A
C1009 N155  1.340 1_545  A
C1009 C1010 1.333 .      A
C1009 C1014 1.368 .      A
C1010 C1011 1.376 .      A
C1011 C1012 1.371 .      A
C1012 C1013 1.362 .      A
C1013 C1014 1.341 .      A
C1014 N156  1.321 .      A
N156  C1008 1.376 1_545  A
C1015 C1016 1.372 .      A
C1015 C1020 1.380 .      A
C1016 C1017 1.373 .      A
C1017 C1018 1.366 .      A
C1018 C1019 1.373 .      A
C1019 C1020 1.377 .      A
C1021 N157  1.389 1_545  A
C1021 N158  1.413 1_545  A
N157  C1021 1.389 1_565  A
N157  C1022 1.348 .      A
C1022 C1023 1.370 .      A
C1022 C1027 1.367 .      A
C1023 C1024 1.370 .      A
C1024 C1025 1.372 .      A
C1025 C1026 1.375 .      A
C1026 C1027 1.381 .      A
C1027 N158  1.364 .      A
N158  C1021 1.413 1_565  A
C1028 C1029 1.368 .      A
C1028 C1033 1.369 .      A
C1029 C1030 1.351 .      A
C1030 C1031 1.363 .      A
C1031 C1032 1.377 .      A
C1032 C1033 1.356 .      A
C1034 N159  1.418 .      A
C1034 N160  1.405 .      A
N159  C1035 1.350 .      A
C1035 C1036 1.374 .      A
C1035 C1040 1.359 .      A
C1036 C1037 1.382 .      A
C1037 C1038 1.381 .      A
C1038 C1039 1.379 .      A
C1039 C1040 1.360 .      A
C1040 N160  1.349 .      A
C1041 C1042 1.369 .      A
C1041 C1046 1.369 .      A
C1042 C1043 1.373 .      A
C1043 C1044 1.378 1_545  A
C1044 C1043 1.378 1_565  A
C1044 C1045 1.365 .      A
C1045 C1046 1.352 1_565  A
C1046 C1045 1.352 1_545  A
C1047 N161  1.406 .      A
C1047 N162  1.393 .      A
N161  C1048 1.331 .      A
C1048 C1049 1.357 .      A
C1048 C1053 1.373 .      A
C1049 C1050 1.363 .      A
C1050 C1051 1.379 1_554  A
C1051 C1050 1.379 1_556  A
C1051 C1052 1.387 .      A
C1052 C1053 1.366 1_556  A
C1053 C1052 1.366 1_554  A
C1053 N162  1.352 .      A
C1054 C1055 1.379 .      A
C1054 C1059 1.375 .      A
C1055 C1056 1.366 .      A
C1056 C1057 1.371 .      A
C1057 C1058 1.366 .      A
C1058 C1059 1.366 .      A
C1060 N163  1.414 .      A
C1060 N164  1.415 .      A
N163  C1061 1.345 .      A
C1061 C1062 1.349 .      A
C1061 C1066 1.363 .      A
C1062 C1063 1.361 .      A
C1063 C1064 1.366 .      A
C1064 C1065 1.343 .      A
C1065 C1066 1.330 .      A
C1066 N164  1.316 .      A
C1067 C1068 1.378 1_565  A
C1067 C1072 1.351 .      A
C1068 C1067 1.378 1_545  A
C1068 C1069 1.374 .      A
C1069 C1070 1.366 1_545  A
C1070 C1069 1.366 1_565  A
C1070 C1071 1.369 .      A
C1071 C1072 1.377 .      A
C1073 N165  1.410 .      A
C1073 N166  1.403 .      A
N165  C1074 1.325 .      A
C1074 C1075 1.348 .      A
C1074 C1079 1.369 .      A
C1075 C1076 1.357 .      A
C1076 C1077 1.389 .      A
C1077 C1078 1.372 .      A
C1078 C1079 1.355 .      A
C1079 N166  1.345 .      A
C1080 C1081 1.353 .      A
C1080 C1085 1.355 .      A
C1081 C1082 1.372 .      A
C1082 C1083 1.362 .      A
C1083 C1084 1.351 .      A
C1084 C1085 1.342 .      A
C1086 N167  1.397 .      A
C1086 N168  1.419 .      A
N167  C1087 1.350 .      A
C1087 C1088 1.368 .      A
C1087 C1092 1.379 .      A
C1088 C1089 1.381 .      A
C1089 C1090 1.381 .      A
C1090 C1091 1.378 .      A
C1091 C1092 1.373 .      A
C1092 N168  1.355 .      A
C1093 C1094 1.381 .      A
C1093 C1098 1.365 .      A
C1094 C1095 1.364 .      A
C1095 C1096 1.366 .      A
C1096 C1097 1.371 .      A
C1097 C1098 1.372 .      A
C1099 N169  1.395 .      A
C1099 N170  1.399 .      A
N169  C1100 1.362 .      A
C1100 C1101 1.385 .      A
C1100 C1105 1.359 .      A
C1101 C1102 1.377 .      A
C1102 C1103 1.377 1_565  A
C1103 C1102 1.377 1_545  A
C1103 C1104 1.385 .      A
C1104 C1105 1.366 1_545  A
C1105 C1104 1.366 1_565  A
C1105 N170  1.340 .      A
C1106 C1107 1.378 .      A
C1106 C1111 1.360 .      A
C1107 C1108 1.375 .      A
C1108 C1109 1.374 .      A
C1109 C1110 1.380 .      A
C1110 C1111 1.374 .      A
C1112 N171  1.422 .      A
C1112 N172  1.415 .      A
N171  C1113 1.353 .      A
C1113 C1114 1.367 .      A
C1113 C1118 1.344 .      A
C1114 C1115 1.364 .      A
C1115 C1116 1.357 .      A
C1116 C1117 1.361 .      A
C1117 C1118 1.325 .      A
C1118 N172  1.322 .      A
C1119 C1120 1.381 .      A
C1119 C1124 1.389 .      A
C1120 C1121 1.368 .      A
C1121 C1122 1.367 .      A
C1122 C1123 1.370 .      A
C1123 C1124 1.369 .      A
C1125 N173  1.443 .      A
C1125 N174  1.429 .      A
N173  C1126 1.354 .      A
C1126 C1127 1.360 .      A
C1126 C1131 1.381 .      A
C1127 C1128 1.377 .      A
C1128 C1129 1.381 .      A
C1129 C1130 1.381 .      A
C1130 C1131 1.367 .      A
C1131 N174  1.342 .      A
C1132 C1133 1.361 .      A
C1132 C1137 1.368 .      A
C1133 C1134 1.360 .      A
C1134 C1135 1.368 .      A
C1135 C1136 1.370 .      A
C1136 C1137 1.363 .      A
C1138 N175  1.399 .      A
C1138 N176  1.419 .      A
N175  C1139 1.359 .      A
C1139 C1140 1.377 .      A
C1139 C1144 1.374 .      A
C1140 C1141 1.383 1_655  A
C1141 C1140 1.383 1_455  A
C1141 C1142 1.375 1_455  A
C1142 C1141 1.375 1_655  A
C1142 C1143 1.373 .      A
C1143 C1144 1.355 .      A
C1144 N176  1.346 .      A
C1145 C1146 1.378 .      A
C1145 C1150 1.341 .      A
C1146 C1147 1.364 .      A
C1147 C1148 1.359 .      A
C1148 C1149 1.351 .      A
C1149 C1150 1.360 .      A
C1151 N177  1.405 .      A
C1151 N178  1.392 .      A
N177  C1152 1.337 .      A
C1152 C1153 1.358 .      A
C1152 C1157 1.358 .      A
C1153 C1154 1.370 .      A
C1154 C1155 1.386 .      A
C1155 C1156 1.380 .      A
C1156 C1157 1.353 .      A
C1157 N178  1.336 .      A
C1158 C1159 1.368 .      A
C1158 C1163 1.325 .      A
C1159 C1160 1.365 .      A
C1160 C1161 1.384 .      A
C1161 C1162 1.363 .      A
C1162 C1163 1.365 .      A
C1164 N179  1.400 .      A
C1164 N180  1.388 .      A
N179  C1165 1.363 .      A
C1165 C1166 1.378 .      A
C1165 C1170 1.377 .      A
C1166 C1167 1.375 .      A
C1167 C1168 1.375 .      A
C1168 C1169 1.379 .      A
C1169 C1170 1.372 .      A
C1170 N180  1.349 .      A
C1171 C1172 1.346 .      A
C1171 C1176 1.348 .      A
C1172 C1173 1.351 .      A
C1173 C1174 1.366 .      A
C1174 C1175 1.371 .      A
C1175 C1176 1.370 .      A
C1177 N181  1.420 .      A
C1177 N182  1.391 .      A
N181  C1178 1.352 .      A
C1178 C1179 1.336 .      A
C1178 C1183 1.358 .      A
C1179 C1180 1.380 .      A
C1180 C1181 1.369 .      A
C1181 C1182 1.353 .      A
C1182 C1183 1.357 .      A
C1183 N182  1.315 .      A
C1184 C1185 1.373 .      A
C1184 C1189 1.402 .      A
C1185 C1186 1.360 .      A
C1186 C1187 1.368 .      A
C1187 C1188 1.382 .      A
C1188 C1189 1.374 .      A
C1190 N183  1.427 .      A
C1190 N184  1.403 .      A
N183  C1191 1.339 .      A
C1191 C1192 1.369 .      A
C1191 C1196 1.385 .      A
C1192 C1193 1.373 .      A
C1193 C1194 1.381 .      A
C1194 C1195 1.390 .      A
C1195 C1196 1.365 .      A
C1196 N184  1.355 .      A
C1197 C1198 1.381 .      A
C1197 C1202 1.361 .      A
C1198 C1199 1.375 1_655  A
C1199 C1198 1.375 1_455  A
C1199 C1200 1.374 .      A
C1200 C1201 1.378 1_455  A
C1201 C1200 1.378 1_655  A
C1201 C1202 1.381 .      A
C1203 N185  1.405 .      A
C1203 N186  1.419 .      A
N185  C1204 1.328 .      A
C1204 C1205 1.355 .      A
C1204 C1209 1.372 .      A
C1205 C1206 1.357 .      A
C1206 C1207 1.369 .      A
C1207 C1208 1.375 .      A
C1208 C1209 1.361 .      A
C1209 N186  1.348 .      A
C1210 C1211 1.359 .      A
C1210 C1215 1.371 .      A
C1211 C1212 1.360 .      A
C1212 C1213 1.362 .      A
C1213 C1214 1.383 .      A
C1214 C1215 1.368 .      A
C1216 N187  1.408 .      A
C1216 N188  1.431 .      A
N187  C1217 1.349 .      A
C1217 C1218 1.355 1_655  A
C1217 C1222 1.382 .      A
C1218 C1217 1.355 1_455  A
C1218 C1219 1.385 .      A
C1219 C1220 1.386 .      A
C1220 C1221 1.383 1_455  A
C1221 C1220 1.383 1_655  A
C1221 C1222 1.367 .      A
C1222 N188  1.344 .      A
C1223 C1224 1.374 .      A
C1223 C1228 1.365 .      A
C1224 C1225 1.372 .      A
C1225 C1226 1.366 .      A
C1226 C1227 1.370 .      A
C1227 C1228 1.379 .      A
C1229 N189  1.429 .      A
C1229 N190  1.406 .      A
N189  C1230 1.355 .      A
C1230 C1231 1.366 .      A
C1230 C1235 1.371 .      A
C1231 C1232 1.370 .      A
C1232 C1233 1.372 .      A
C1233 C1234 1.375 .      A
C1234 C1235 1.361 .      A
C1235 N190  1.346 .      A
C1236 C1237 1.364 .      A
C1236 C1241 1.370 .      A
C1237 C1238 1.370 .      A
C1238 C1239 1.379 .      A
C1239 C1240 1.364 .      A
C1240 C1241 1.359 .      A
C1242 N191  1.405 .      A
C1242 N192  1.409 .      A
N191  C1243 1.353 .      A
C1243 C1244 1.361 .      A
C1243 C1248 1.365 .      A
C1244 C1245 1.378 .      A
C1245 C1246 1.386 .      A
C1246 C1247 1.372 .      A
C1247 C1248 1.362 .      A
C1248 N192  1.332 .      A
C1249 C1250 1.370 .      A
C1249 C1254 1.372 .      A
C1250 C1251 1.377 .      A
C1251 C1252 1.380 .      A
C1252 C1253 1.369 .      A
C1253 C1254 1.368 .      A
C1255 N193  1.424 .      A
C1255 N194  1.413 .      A
N193  C1256 1.338 .      A
C1256 C1257 1.344 .      A
C1256 C1261 1.375 .      A
C1257 C1258 1.364 .      A
C1258 C1259 1.391 .      A
C1259 C1260 1.366 .      A
C1260 C1261 1.353 .      A
C1261 N194  1.332 .      A
C1262 C1263 1.351 .      A
C1262 C1267 1.388 .      A
C1263 C1264 1.353 .      A
C1264 C1265 1.360 .      A
C1265 C1266 1.353 .      A
C1266 C1267 1.368 .      A
C1268 N195  1.430 1_545  A
C1268 N196  1.421 .      A
N195  C1268 1.430 1_565  A
N195  C1269 1.337 .      A
C1269 C1270 1.351 .      A
C1269 C1274 1.375 .      A
C1270 C1271 1.374 .      A
C1271 C1272 1.385 .      A
C1272 C1273 1.358 .      A
C1273 C1274 1.341 .      A
C1274 N196  1.331 1_565  A
N196  C1274 1.331 1_545  A
C1275 C1276 1.334 .      A
C1275 C1280 1.349 .      A
C1276 C1277 1.361 .      A
C1277 C1278 1.358 .      A
C1278 C1279 1.335 .      A
C1279 C1280 1.364 .      A
C1281 N197  1.397 .      A
C1281 N198  1.371 .      A
N197  C1282 1.325 .      A
C1282 C1283 1.345 .      A
C1282 C1287 1.375 .      A
C1283 C1284 1.367 .      A
C1284 C1285 1.385 .      A
C1285 C1286 1.366 .      A
C1286 C1287 1.364 .      A
C1287 N198  1.355 .      A
C1288 C1289 1.369 .      A
C1288 C1293 1.362 .      A
C1289 C1290 1.369 .      A
C1290 C1291 1.359 .      A
C1291 C1292 1.364 .      A
C1292 C1293 1.367 .      A
C1294 N199  1.405 .      A
C1294 N200  1.410 1_565  A
N199  C1295 1.358 .      A
C1295 C1296 1.363 .      A
C1295 C1300 1.364 1_565  A
C1296 C1297 1.369 1_565  A
C1297 C1296 1.369 1_545  A
C1297 C1298 1.373 .      A
C1298 C1299 1.373 .      A
C1299 C1300 1.359 .      A
C1300 C1295 1.364 1_545  A
C1300 N200  1.326 .      A
N200  C1294 1.410 1_545  A
C1301 C1302 1.368 .      A
C1301 C1306 1.384 .      A
C1302 C1303 1.356 .      A
C1303 C1304 1.372 .      A
C1304 C1305 1.362 .      A
C1305 C1306 1.361 .      A
C1307 N201  1.396 .      A
C1307 N202  1.418 .      A
N201  C1308 1.333 .      A
C1308 C1309 1.361 .      A
C1308 C1313 1.369 .      A
C1309 C1310 1.383 .      A
C1310 C1311 1.368 .      A
C1311 C1312 1.368 .      A
C1312 C1313 1.374 .      A
C1313 N202  1.363 .      A
C1314 C1315 1.378 .      A
C1314 C1319 1.405 .      A
C1315 C1316 1.364 .      A
C1316 C1317 1.368 .      A
C1317 C1318 1.373 .      A
C1318 C1319 1.373 .      A
C1320 N203  1.412 .      A
C1320 N204  1.421 .      A
N203  C1321 1.341 .      A
C1321 C1322 1.324 .      A
C1321 C1326 1.340 .      A
C1322 C1323 1.389 .      A
C1323 C1324 1.365 .      A
C1324 C1325 1.363 .      A
C1325 C1326 1.351 .      A
C1326 N204  1.318 .      A
C1327 C1328 1.353 .      A
C1327 C1332 1.378 .      A
C1328 C1329 1.347 .      A
C1329 C1330 1.363 .      A
C1330 C1331 1.357 .      A
C1331 C1332 1.369 .      A
C1333 N205  1.398 .      A
C1333 N206  1.399 .      A
N205  C1334 1.356 .      A
C1334 C1335 1.368 .      A
C1334 C1339 1.368 .      A
C1335 C1336 1.376 .      A
C1336 C1337 1.382 .      A
C1337 C1338 1.377 .      A
C1338 C1339 1.367 .      A
C1339 N206  1.343 .      A
C1340 C1341 1.361 .      A
C1340 C1345 1.361 .      A
C1341 C1342 1.364 .      A
C1342 C1343 1.373 .      A
C1343 C1344 1.365 .      A
C1344 C1345 1.369 .      A
C1346 N207  1.402 .      A
C1346 N208  1.406 .      A
N207  C1347 1.340 .      A
C1347 C1348 1.366 .      A
C1347 C1352 1.372 .      A
C1348 C1349 1.377 .      A
C1349 C1350 1.388 .      A
C1350 C1351 1.380 .      A
C1351 C1352 1.367 .      A
C1352 N208  1.352 .      A
C1353 C1354 1.350 .      A
C1353 C1358 1.389 .      A
C1354 C1355 1.358 .      A
C1355 C1356 1.358 .      A
C1356 C1357 1.378 .      A
C1357 C1358 1.368 .      A
C1359 N209  1.400 .      A
C1359 N210  1.400 .      A
N209  C1360 1.333 .      A
C1360 C1361 1.371 .      A
C1360 C1365 1.374 .      A
C1361 C1362 1.380 .      A
C1362 C1363 1.386 .      A
C1363 C1364 1.384 .      A
C1364 C1365 1.371 .      A
C1365 N210  1.364 .      A
C1366 C1367 1.370 .      A
C1366 C1371 1.374 .      A
C1367 C1368 1.362 .      A
C1368 C1369 1.362 .      A
C1369 C1370 1.378 .      A
C1370 C1371 1.378 .      A
C1372 N211  1.413 .      A
C1372 N212  1.417 .      A
N211  C1373 1.329 .      A
C1373 C1374 1.348 .      A
C1373 C1378 1.356 .      A
C1374 C1375 1.375 .      A
C1375 C1376 1.375 .      A
C1376 C1377 1.350 .      A
C1377 C1378 1.340 .      A
C1378 N212  1.330 .      A
C1379 C1380 1.360 .      A
C1379 C1384 1.389 .      A
C1380 C1381 1.365 .      A
C1381 C1382 1.364 .      A
C1382 C1383 1.378 .      A
C1383 C1384 1.360 .      A
C1385 N213  1.413 .      A
C1385 N214  1.380 .      A
N213  C1386 1.344 .      A
C1386 C1387 1.358 .      A
C1386 C1391 1.358 .      A
C1387 C1388 1.371 .      A
C1388 C1389 1.375 .      A
C1389 C1390 1.374 .      A
C1390 C1391 1.375 .      A
C1391 N214  1.345 .      A
C1392 C1393 1.363 .      A
C1392 C1397 1.355 .      A
C1393 C1394 1.364 .      A
C1394 C1395 1.355 .      A
C1395 C1396 1.377 .      A
C1396 C1397 1.360 .      A
C1398 N215  1.407 .      A
C1398 N216  1.417 .      A
N215  C1399 1.336 .      A
C1399 C1400 1.337 .      A
C1399 C1404 1.364 .      A
C1400 C1401 1.369 .      A
C1401 C1402 1.372 .      A
C1402 C1403 1.363 .      A
C1403 C1404 1.349 .      A
C1404 N216  1.330 .      A
C1405 C1406 1.371 .      A
C1405 C1410 1.352 .      A
C1406 C1407 1.374 .      A
C1407 C1408 1.356 .      A
C1408 C1409 1.363 .      A
C1409 C1410 1.348 .      A
C1411 N217  1.404 .      A
C1411 N218  1.390 1_545  A
N217  C1412 1.343 1_545  A
C1412 N217  1.343 1_565  A
C1412 C1413 1.363 .      A
C1412 C1417 1.370 .      A
C1413 C1414 1.374 .      A
C1414 C1415 1.376 .      A
C1415 C1416 1.367 .      A
C1416 C1417 1.364 .      A
C1417 N218  1.352 .      A
N218  C1411 1.390 1_565  A
C1418 C1419 1.370 .      A
C1418 C1423 1.365 .      A
C1419 C1420 1.366 1_655  A
C1420 C1419 1.366 1_455  A
C1420 C1421 1.373 1_445  A
C1421 C1420 1.373 1_665  A
C1421 C1422 1.380 .      A
C1422 C1423 1.363 1_565  A
C1423 C1422 1.363 1_545  A
C1424 N219  1.409 .      A
C1424 N220  1.416 1_545  A
N219  C1425 1.353 1_545  A
C1425 N219  1.353 1_565  A
C1425 C1426 1.363 .      A
C1425 C1430 1.371 .      A
C1426 C1427 1.385 .      A
C1427 C1428 1.381 .      A
C1428 C1429 1.377 .      A
C1429 C1430 1.367 .      A
C1430 N220  1.338 .      A
N220  C1424 1.416 1_565  A
C1431 C1432 1.369 .      A
C1431 C1436 1.375 .      A
C1432 C1433 1.371 .      A
C1433 C1434 1.367 .      A
C1434 C1435 1.369 .      A
C1435 C1436 1.364 .      A
C1437 N221  1.405 .      A
C1437 N222  1.422 .      A
N221  C1438 1.324 .      A
C1438 C1439 1.357 .      A
C1438 C1443 1.355 .      A
C1439 C1440 1.364 .      A
C1440 C1441 1.375 .      A
C1441 C1442 1.368 .      A
C1442 C1443 1.316 .      A
C1443 N222  1.334 .      A
C1444 C1445 1.382 .      A
C1444 C1449 1.370 .      A
C1445 C1446 1.374 .      A
C1446 C1447 1.366 .      A
C1447 C1448 1.373 .      A
C1448 C1449 1.388 .      A
C1450 N223  1.414 .      A
C1450 N224  1.420 .      A
N223  C1451 1.338 .      A
C1451 C1452 1.374 1_565  A
C1451 C1456 1.365 .      A
C1452 C1451 1.374 1_545  A
C1452 C1453 1.384 .      A
C1453 C1454 1.378 .      A
C1454 C1455 1.367 .      A
C1455 C1456 1.359 1_545  A
C1456 C1455 1.359 1_565  A
C1456 N224  1.352 .      A
C1457 C1458 1.370 .      A
C1457 C1462 1.380 .      A
C1458 C1459 1.374 .      A
C1459 C1460 1.368 .      A
C1460 C1461 1.363 .      A
C1461 C1462 1.347 .      A
C1463 N225  1.399 .      A
C1463 N226  1.389 .      A
N225  C1464 1.332 .      A
C1464 C1465 1.358 .      A
C1464 C1469 1.360 .      A
C1465 C1466 1.362 .      A
C1466 C1467 1.375 1_554  A
C1467 C1466 1.375 1_556  A
C1467 C1468 1.377 .      A
C1468 C1469 1.350 1_556  A
C1469 C1468 1.350 1_554  A
C1469 N226  1.338 .      A
C1470 C1471 1.373 .      A
C1470 C1475 1.382 .      A
C1471 C1472 1.370 .      A
C1472 C1473 1.362 .      A
C1473 C1474 1.369 .      A
C1474 C1475 1.382 .      A
C1476 N227  1.409 .      A
C1476 N228  1.401 .      A
N227  C1477 1.350 .      A
C1477 C1478 1.350 .      A
C1477 C1482 1.363 .      A
C1478 C1479 1.390 .      A
C1479 C1480 1.368 .      A
C1480 C1481 1.363 .      A
C1481 C1482 1.361 .      A
C1482 N228  1.325 .      A
C1483 C1484 1.356 .      A
C1483 C1488 1.368 .      A
C1484 C1485 1.367 .      A
C1485 C1486 1.364 .      A
C1486 C1487 1.373 .      A
C1487 C1488 1.381 .      A
C1489 N229  1.397 .      A
C1489 N230  1.408 .      A
N229  C1490 1.357 .      A
C1490 C1491 1.365 .      A
C1490 C1495 1.366 .      A
C1491 C1492 1.392 .      A
C1492 C1493 1.378 .      A
C1493 C1494 1.370 .      A
C1494 C1495 1.361 .      A
C1495 N230  1.331 .      A
C1496 C1497 1.358 .      A
C1496 C1501 1.391 .      A
C1497 C1498 1.369 .      A
C1498 C1499 1.366 .      A
C1499 C1500 1.358 .      A
C1500 C1501 1.357 .      A
C1502 N231  1.414 .      A
C1502 N232  1.395 .      A
N231  C1503 1.356 .      A
C1503 C1504 1.376 .      A
C1503 C1508 1.380 .      A
C1504 C1505 1.382 .      A
C1505 C1506 1.377 .      A
C1506 C1507 1.377 .      A
C1507 C1508 1.356 .      A
C1508 N232  1.345 .      A
C1509 C1510 1.336 .      A
C1509 C1514 1.363 .      A
C1510 C1511 1.349 .      A
C1511 C1512 1.367 .      A
C1512 C1513 1.372 .      A
C1513 C1514 1.373 .      A
C1515 N233  1.413 .      A
C1515 N234  1.394 .      A
N233  C1516 1.333 .      A
C1516 C1517 1.357 .      A
C1516 C1521 1.366 .      A
C1517 C1518 1.375 .      A
C1518 C1519 1.377 .      A
C1519 C1520 1.357 .      A
C1520 C1521 1.341 .      A
C1521 N234  1.335 .      A
C1522 C1523 1.341 .      A
C1522 C1527 1.328 .      A
C1523 C1524 1.358 .      A
C1524 C1525 1.343 .      A
C1525 C1526 1.356 .      A
C1526 C1527 1.377 .      A
C1528 N235  1.418 .      A
C1528 N236  1.379 .      A
N235  C1529 1.359 .      A
C1529 C1530 1.364 .      A
C1529 C1534 1.370 .      A
C1530 C1531 1.384 .      A
C1531 C1532 1.385 .      A
C1532 C1533 1.381 .      A
C1533 C1534 1.375 .      A
C1534 N236  1.339 .      A
C1535 C1536 1.362 1_565  A
C1535 C1540 1.357 .      A
C1536 C1535 1.362 1_545  A
C1536 C1537 1.374 1_545  A
C1537 C1536 1.374 1_565  A
C1537 C1538 1.374 .      A
C1538 C1539 1.355 .      A
C1539 C1540 1.357 .      A
C1541 N237  1.404 .      A
C1541 N238  1.395 .      A
N237  C1542 1.340 .      A
C1542 C1543 1.361 .      A
C1542 C1547 1.374 .      A
C1543 C1544 1.386 .      A
C1544 C1545 1.383 .      A
C1545 C1546 1.378 .      A
C1546 C1547 1.365 .      A
C1547 N238  1.356 .      A
C1548 C1549 1.358 1_565  A
C1548 C1553 1.356 .      A
C1549 C1548 1.358 1_545  A
C1549 C1550 1.369 .      A
C1550 C1551 1.366 1_545  A
C1551 C1550 1.366 1_565  A
C1551 C1552 1.362 .      A
C1552 C1553 1.370 .      A
C1554 N239  1.393 .      A
C1554 N240  1.414 .      A
N239  C1555 1.358 .      A
C1555 C1556 1.334 .      A
C1555 C1560 1.364 .      A
C1556 C1557 1.390 .      A
C1557 C1558 1.366 .      A
C1558 C1559 1.359 .      A
C1559 C1560 1.360 .      A
C1560 N240  1.315 .      A
C1561 C1562 1.371 .      A
C1561 C1566 1.349 .      A
C1562 C1563 1.363 .      A
C1563 C1564 1.365 .      A
C1564 C1565 1.379 .      A
C1565 C1566 1.374 .      A
C1567 N241  1.411 .      A
C1567 N242  1.415 .      A
N241  C1568 1.353 .      A
C1568 C1569 1.377 .      A
C1568 C1573 1.380 .      A
C1569 C1570 1.379 .      A
C1570 C1571 1.381 .      A
C1571 C1572 1.383 .      A
C1572 C1573 1.382 .      A
C1573 N242  1.363 .      A
C1574 C1575 1.347 .      A
C1574 C1579 1.369 .      A
C1575 C1576 1.333 .      A
C1576 C1577 1.371 .      A
C1577 C1578 1.366 .      A
C1578 C1579 1.355 .      A
C1580 N243  1.421 .      A
C1580 N244  1.434 .      A
N243  C1581 1.340 .      A
C1581 C1582 1.364 .      A
C1581 C1586 1.375 .      A
C1582 C1583 1.382 .      A
C1583 C1584 1.387 .      A
C1584 C1585 1.382 .      A
C1585 C1586 1.367 .      A
C1586 N244  1.356 .      A
C1587 C1588 1.363 .      A
C1587 C1592 1.365 .      A
C1588 C1589 1.358 .      A
C1589 C1590 1.368 .      A
C1590 C1591 1.389 .      A
C1591 C1592 1.373 .      A
C1593 N245  1.411 .      A
C1593 N246  1.418 .      A
N245  C1594 1.371 .      A
C1594 C1595 1.389 .      A
C1594 C1599 1.361 .      A
C1595 C1596 1.379 .      A
C1596 C1597 1.365 .      A
C1597 C1598 1.356 .      A
C1598 C1599 1.344 .      A
C1599 N246  1.330 .      A
C1600 C1601 1.383 .      A
C1600 C1605 1.386 .      A
C1601 C1602 1.376 .      A
C1602 C1603 1.373 .      A
C1603 C1604 1.384 .      A
C1604 C1605 1.381 .      A
C1606 N247  1.406 .      A
C1606 N248  1.423 .      A
N247  C1607 1.346 .      A
C1607 C1608 1.355 .      A
C1607 C1612 1.352 .      A
C1608 C1609 1.383 .      A
C1609 C1610 1.373 .      A
C1610 C1611 1.372 .      A
C1611 C1612 1.355 .      A
C1612 N248  1.333 .      A
C1613 C1614 1.363 .      A
C1613 C1618 1.385 .      A
C1614 C1615 1.364 .      A
C1615 C1616 1.379 .      A
C1616 C1617 1.363 .      A
C1617 C1618 1.359 .      A
C1619 N249  1.404 1_655  A
C1619 N250  1.404 .      A
N249  C1619 1.404 1_455  A
N249  C1620 1.331 .      A
C1620 C1621 1.357 .      A
C1620 C1625 1.363 1_455  A
C1621 C1622 1.374 .      A
C1622 C1623 1.381 .      A
C1623 C1624 1.375 1_455  A
C1624 C1623 1.375 1_655  A
C1624 C1625 1.362 .      A
C1625 C1620 1.363 1_655  A
C1625 N250  1.356 .      A
C1626 C1627 1.379 .      A
C1626 C1631 1.382 .      A
C1627 C1628 1.374 .      A
C1628 C1629 1.374 .      A
C1629 C1630 1.378 .      A
C1630 C1631 1.386 .      A
C1632 N251  1.417 .      A
C1632 N252  1.419 .      A
N251  C1633 1.330 .      A
C1633 C1634 1.362 .      A
C1633 C1638 1.369 .      A
C1634 C1635 1.365 .      A
C1635 C1636 1.373 .      A
C1636 C1637 1.378 .      A
C1637 C1638 1.350 .      A
C1638 N252  1.347 .      A
C1639 C1640 1.366 .      A
C1639 C1644 1.351 .      A
C1640 C1641 1.381 .      A
C1641 C1642 1.375 .      A
C1642 C1643 1.352 .      A
C1643 C1644 1.359 .      A
C1645 N253  1.400 .      A
C1645 N254  1.411 .      A
N253  C1646 1.334 .      A
C1646 C1647 1.354 .      A
C1646 C1651 1.371 .      A
C1647 C1648 1.375 .      A
C1648 C1649 1.384 .      A
C1649 C1650 1.369 .      A
C1650 C1651 1.350 .      A
C1651 N254  1.333 .      A
C1652 C1653 1.351 .      A
C1652 C1657 1.374 .      A
C1653 C1654 1.345 1_565  A
C1654 C1653 1.345 1_545  A
C1654 C1655 1.375 .      A
C1655 C1656 1.359 1_545  A
C1656 C1655 1.359 1_565  A
C1656 C1657 1.362 .      A
C1658 N255  1.404 .      A
C1658 N256  1.399 .      A
N255  C1659 1.342 .      A
C1659 C1660 1.363 .      A
C1659 C1664 1.375 .      A
C1660 C1661 1.384 .      A
C1661 C1662 1.387 .      A
C1662 C1663 1.382 .      A
C1663 C1664 1.359 .      A
C1664 N256  1.340 .      A
C1665 C1666 1.382 .      A
C1665 C1670 1.342 .      A
C1666 C1667 1.379 .      A
C1667 C1668 1.368 .      A
C1668 C1669 1.375 .      A
C1669 C1670 1.372 .      A
C1671 N257  1.441 .      A
C1671 N258  1.412 .      A
N257  C1672 1.326 .      A
C1672 C1673 1.352 .      A
C1672 C1677 1.385 .      A
C1673 C1674 1.362 .      A
C1674 C1675 1.378 .      A
C1675 C1676 1.369 .      A
C1676 C1677 1.348 .      A
C1677 N258  1.341 .      A
C1678 C1679 1.379 .      A
C1678 C1683 1.382 .      A
C1679 C1680 1.374 .      A
C1680 C1681 1.373 .      A
C1681 C1682 1.380 .      A
C1682 C1683 1.385 .      A
C1684 N259  1.431 1_565  A
C1684 N260  1.406 .      A
N259  C1684 1.431 1_545  A
N259  C1685 1.328 .      A
C1685 C1686 1.335 .      A
C1685 C1690 1.365 .      A
C1686 C1687 1.358 .      A
C1687 C1688 1.387 .      A
C1688 C1689 1.355 .      A
C1689 C1690 1.347 .      A
C1690 N260  1.322 1_545  A
N260  C1690 1.322 1_565  A
C1691 C1692 1.358 .      A
C1691 C1696 1.373 1_565  A
C1692 C1693 1.369 .      A
C1693 C1694 1.363 1_565  A
C1694 C1693 1.363 1_545  A
C1694 C1695 1.378 .      A
C1695 C1696 1.370 .      A
C1696 C1691 1.373 1_545  A
C1697 N261  1.403 .      A
C1697 N262  1.406 .      A
N261  C1698 1.339 .      A
C1698 C1699 1.370 .      A
C1698 C1703 1.367 .      A
C1699 C1700 1.380 .      A
C1700 C1701 1.380 .      A
C1701 C1702 1.379 .      A
C1702 C1703 1.369 .      A
C1703 N262  1.365 .      A
C1704 C1705 1.380 .      A
C1704 C1709 1.370 .      A
C1705 C1706 1.373 .      A
C1706 C1707 1.366 .      A
C1707 C1708 1.353 .      A
C1708 C1709 1.362 .      A
C1710 N263  1.416 .      A
C1710 N264  1.390 1_655  A
N263  C1711 1.353 .      A
C1711 C1712 1.365 .      A
C1711 C1716 1.365 .      A
C1712 C1713 1.379 .      A
C1713 C1714 1.380 .      A
C1714 C1715 1.381 1_655  A
C1715 C1714 1.381 1_455  A
C1715 C1716 1.371 1_455  A
C1716 C1715 1.371 1_655  A
C1716 N264  1.348 1_655  A
N264  C1710 1.390 1_455  A
N264  C1716 1.348 1_455  A
C1717 C1718 1.362 .      A
C1717 C1722 1.361 .      A
C1718 C1719 1.359 .      A
C1719 C1720 1.370 .      A
C1720 C1721 1.375 .      A
C1721 C1722 1.369 .      A
C1723 N265  1.413 .      A
C1723 N266  1.394 1_655  A
N265  C1724 1.358 .      A
C1724 C1725 1.369 .      A
C1724 C1729 1.362 1_655  A
C1725 C1726 1.381 .      A
C1726 C1727 1.377 .      A
C1727 C1728 1.375 1_655  A
C1728 C1727 1.375 1_455  A
C1728 C1729 1.356 .      A
C1729 C1724 1.362 1_455  A
C1729 N266  1.340 .      A
N266  C1723 1.394 1_455  A
C1730 C1731 1.363 .      A
C1730 C1735 1.351 .      A
C1731 C1732 1.368 .      A
C1732 C1733 1.374 .      A
C1733 C1734 1.360 .      A
C1734 C1735 1.364 .      A
C1736 N267  1.421 .      A
C1736 N268  1.416 .      A
N267  C1737 1.352 .      A
C1737 C1738 1.364 .      A
C1737 C1742 1.383 .      A
C1738 C1739 1.382 .      A
C1739 C1740 1.385 .      A
C1740 C1741 1.383 .      A
C1741 C1742 1.369 .      A
C1742 N268  1.355 .      A
C1743 C1744 1.378 .      A
C1743 C1748 1.392 .      A
C1744 C1745 1.370 .      A
C1745 C1746 1.373 .      A
C1746 C1747 1.384 .      A
C1747 C1748 1.379 .      A
C1749 N269  1.429 .      A
C1749 N270  1.411 .      A
N269  C1750 1.337 1_565  A
C1750 N269  1.337 1_545  A
C1750 C1751 1.338 .      A
C1750 C1755 1.356 1_545  A
C1751 C1752 1.362 .      A
C1752 C1753 1.374 .      A
C1753 C1754 1.351 1_545  A
C1754 C1753 1.351 1_565  A
C1754 C1755 1.345 .      A
C1755 C1750 1.356 1_565  A
C1755 N270  1.316 .      A
C1756 C1757 1.330 .      A
C1756 C1761 1.363 .      A
C1757 C1758 1.353 1_565  A
C1758 C1757 1.353 1_545  A
C1758 C1759 1.352 .      A
C1759 C1760 1.355 1_545  A
C1760 C1759 1.355 1_565  A
C1760 C1761 1.352 .      A
C1762 N271  1.390 .      A
C1762 N272  1.387 .      A
N271  C1763 1.334 .      A
C1763 C1764 1.371 .      A
C1763 C1768 1.372 .      A
C1764 C1765 1.371 .      A
C1765 C1766 1.379 .      A
C1766 C1767 1.369 .      A
C1767 C1768 1.352 .      A
C1768 N272  1.355 .      A
C1769 C1770 1.378 .      A
C1769 C1774 1.378 .      A
C1770 C1771 1.376 .      A
C1771 C1772 1.373 .      A
C1772 C1773 1.377 .      A
C1773 C1774 1.378 .      A
C1775 N273  1.408 .      A
C1775 N274  1.419 .      A
N273  C1776 1.353 .      A
C1776 C1777 1.373 .      A
C1776 C1781 1.349 .      A
C1777 C1778 1.366 .      A
C1778 C1779 1.366 .      A
C1779 C1780 1.348 .      A
C1780 C1781 1.331 .      A
C1781 N274  1.324 .      A
C1782 C1783 1.373 .      A
C1782 C1787 1.380 .      A
C1783 C1784 1.362 .      A
C1784 C1785 1.356 .      A
C1785 C1786 1.378 .      A
C1786 C1787 1.365 .      A
C1788 N275  1.402 .      A
C1788 N276  1.410 .      A
N275  C1789 1.356 .      A
C1789 C1790 1.368 .      A
C1789 C1794 1.376 .      A
C1790 C1791 1.384 .      A
C1791 C1792 1.385 .      A
C1792 C1793 1.383 .      A
C1793 C1794 1.372 .      A
C1794 N276  1.344 .      A
C1795 C1796 1.371 .      A
C1795 C1800 1.365 .      A
C1796 C1797 1.372 .      A
C1797 C1798 1.362 .      A
C1798 C1799 1.372 .      A
C1799 C1800 1.361 .      A
C1801 N277  1.438 1_565  A
C1801 N278  1.423 1_565  A
N277  C1801 1.438 1_545  A
N277  C1802 1.347 .      A
C1802 C1803 1.352 .      A
C1802 C1807 1.380 .      A
C1803 C1804 1.371 .      A
C1804 C1805 1.383 .      A
C1805 C1806 1.372 .      A
C1806 C1807 1.356 .      A
C1807 N278  1.332 .      A
N278  C1801 1.423 1_545  A
C1808 C1809 1.376 .      A
C1808 C1813 1.377 .      A
C1809 C1810 1.370 .      A
C1810 C1811 1.373 .      A
C1811 C1812 1.384 .      A
C1812 C1813 1.373 .      A
C1814 N279  1.406 .      A
C1814 N280  1.420 .      A
N279  C1815 1.351 .      A
C1815 C1816 1.359 .      A
C1815 C1820 1.365 .      A
C1816 C1817 1.384 .      A
C1817 C1818 1.382 .      A
C1818 C1819 1.380 .      A
C1819 C1820 1.372 .      A
C1820 N280  1.338 .      A
C1821 C1822 1.377 .      A
C1821 C1826 1.380 .      A
C1822 C1823 1.379 .      A
C1823 C1824 1.380 .      A
C1824 C1825 1.379 .      A
C1825 C1826 1.379 .      A
C1827 N281  1.422 .      A
C1827 N282  1.417 .      A
N281  C1828 1.339 .      A
C1828 C1829 1.350 .      A
C1828 C1833 1.367 .      A
C1829 C1830 1.373 .      A
C1830 C1831 1.381 .      A
C1831 C1832 1.383 .      A
C1832 C1833 1.351 .      A
C1833 N282  1.337 .      A
C1834 C1835 1.378 .      A
C1834 C1839 1.382 .      A
C1835 C1836 1.375 .      A
C1836 C1837 1.374 .      A
C1837 C1838 1.379 .      A
C1838 C1839 1.381 .      A
C1840 N283  1.414 .      A
C1840 N284  1.411 1_565  A
N283  C1841 1.351 .      A
C1841 C1842 1.368 .      A
C1841 C1846 1.368 .      A
C1842 C1843 1.379 .      A
C1843 C1844 1.382 .      A
C1844 C1845 1.379 1_565  A
C1845 C1844 1.379 1_545  A
C1845 C1846 1.362 1_545  A
C1846 C1845 1.362 1_565  A
C1846 N284  1.338 1_565  A
N284  C1840 1.411 1_545  A
N284  C1846 1.338 1_545  A
C1847 C1848 1.366 .      A
C1847 C1852 1.366 .      A
C1848 C1849 1.367 .      A
C1849 C1850 1.369 .      A
C1850 C1851 1.373 .      A
C1851 C1852 1.365 .      A
C1853 N285  1.403 .      A
C1853 N286  1.414 .      A
N285  C1854 1.357 .      A
C1854 C1855 1.372 .      A
C1854 C1859 1.376 .      A
C1855 C1856 1.380 .      A
C1856 C1857 1.383 .      A
C1857 C1858 1.381 .      A
C1858 C1859 1.373 .      A
C1859 N286  1.348 .      A
C1860 C1861 1.372 .      A
C1860 C1865 1.353 .      A
C1861 C1862 1.379 .      A
C1862 C1863 1.379 .      A
C1863 C1864 1.373 .      A
C1864 C1865 1.376 .      A
C1866 N287  1.420 .      A
C1866 N288  1.382 .      A
N287  C1867 1.343 .      A
C1867 C1868 1.360 1_565  A
C1867 C1872 1.370 .      A
C1868 C1867 1.360 1_545  A
C1868 C1869 1.376 .      A
C1869 C1870 1.380 .      A
C1870 C1871 1.371 .      A
C1871 C1872 1.361 1_545  A
C1872 C1871 1.361 1_565  A
C1872 N288  1.344 .      A
