data_str_m1_o12216_AFI
_audit_creation_date              2015-10-01T06:47:24-0700
_symmetry_space_group_name_H-M    P1
_symmetry_Int_Tables_number       1
_space_group_crystal_system       triclinic
loop_
_symmetry_equiv_pos_as_xyz
  x,y,z
_cell_length_a                    17.5874423
_cell_length_b                    28.5516854
_cell_length_c                    28.8337891
_cell_angle_alpha                 61.3564328
_cell_angle_beta                  86.0465282
_cell_angle_gamma                 87.2151286
_cell_volume                      12674.7371652

loop_
_atom_site_label
_atom_site_type_symbol
_atom_site_description
_atom_site_fract_x
_atom_site_fract_y
_atom_site_fract_z
_atom_type_partial_charge
Zn1   Zn    Zn3+2 0.971124 0.785041 0.456720 0.000000
Zn2   Zn    Zn3+2 0.849353 0.566487 0.461925 0.000000
Zn3   Zn    Zn3+2 0.841514 0.910201 0.225149 0.000000
Zn4   Zn    Zn3+2 0.971730 0.117229 0.010538 0.000000
Zn5   Zn    Zn3+2 0.966821 0.365060 0.684393 0.000000
Zn6   Zn    Zn3+2 0.484310 0.682345 0.025820 0.000000
Zn7   Zn    Zn3+2 0.854765 0.698650 0.005487 0.000000
Zn8   Zn    Zn3+2 0.371892 0.562332 0.895986 0.000000
Zn9   Zn    Zn3+2 0.352063 0.680809 0.241551 0.000000
Zn10  Zn    Zn3+2 0.347685 0.886141 0.819752 0.000000
Zn11  Zn    Zn3+2 0.986562 0.566795 0.890376 0.000000
Zn12  Zn    Zn3+2 0.476457 0.334784 0.905849 0.000000
Zn13  Zn    Zn3+2 0.977753 0.906137 0.797972 0.000000
Zn14  Zn    Zn3+2 0.484312 0.762970 0.690844 0.000000
Zn15  Zn    Zn3+2 0.469047 0.101867 0.810093 0.000000
Zn16  Zn    Zn3+2 0.970714 0.687496 0.223690 0.000000
Zn17  Zn    Zn3+2 0.478569 0.893790 0.235725 0.000000
Zn18  Zn    Zn3+2 0.471489 0.554140 0.486590 0.000000
Zn19  Zn    Zn3+2 0.345053 0.342691 0.696381 0.000000
Zn20  Zn    Zn3+2 0.340526 0.100468 0.029775 0.000000
Zn21  Zn    Zn3+2 0.860877 0.778915 0.679679 0.000000
Zn22  Zn    Zn3+2 0.841092 0.354685 0.903874 0.000000
Zn23  Zn    Zn3+2 0.848497 0.122995 0.796849 0.000000
Zn24  Zn    Zn3+2 0.336847 0.766128 0.484146 0.000000
C1    C     C_3   0.139535 0.746152 0.329389 0.000000
C2    C     C_R   0.060354 0.727471 0.348131 0.000000
C3    C     C_R   0.041920 0.680957 0.348929 0.000000
C4    C     C_R   0.992841 0.646718 0.388140 0.000000
C5    C     C_R   0.948750 0.664362 0.417355 0.000000
N1    N     N_R   0.901110 0.634802 0.458854 0.000000
C6    C     C_R   0.895298 0.665164 0.484631 0.000000
N2    N     N_R   0.936073 0.713093 0.459004 0.000000
C7    C     C_R   0.964390 0.711573 0.415236 0.000000
C8    C     C_R   0.017072 0.745913 0.378410 0.000000
S1    S     S_3+2 0.837901 0.641235 0.544919 0.000000
O1    O     O_2   0.811717 0.681940 0.563152 0.000000
O2    O     O_2   0.883394 0.601276 0.590723 0.000000
O3    O     O_3   0.761311 0.603476 0.553665 0.000000
H1    H     H_    0.165091 0.728890 0.304971 0.000000
H2    H     H_    0.137737 0.788594 0.304159 0.000000
H3    H     H_    0.176481 0.736732 0.362308 0.000000
H4    H     H_    0.077973 0.665854 0.327258 0.000000
H5    H     H_    0.999902 0.604979 0.401287 0.000000
H6    H     H_    0.036281 0.779588 0.381459 0.000000
H7    H     H_    0.784663 0.571652 0.552744 0.000000
C9    C     C_3   0.809816 0.295601 0.556490 0.000000
C10   C     C_R   0.824070 0.349407 0.550116 0.000000
C11   C     C_R   0.815786 0.393267 0.500924 0.000000
C12   C     C_R   0.828797 0.443811 0.493220 0.000000
C13   C     C_R   0.859142 0.448564 0.533089 0.000000
N3    N     N_R   0.886446 0.493480 0.529103 0.000000
C14   C     C_R   0.926325 0.472738 0.575480 0.000000
N4    N     N_R   0.919725 0.418196 0.608606 0.000000
C15   C     C_R   0.875377 0.404903 0.580080 0.000000
C16   C     C_R   0.849117 0.355688 0.591475 0.000000
S2    S     S_3+2 0.987458 0.510456 0.590272 0.000000
O4    O     O_2   0.997690 0.566195 0.543168 0.000000
O5    O     O_2   0.069340 0.488127 0.596252 0.000000
O6    O     O_3   0.966719 0.518274 0.645083 0.000000
H8    H     H_    0.749650 0.293351 0.548588 0.000000
H9    H     H_    0.822348 0.264152 0.596908 0.000000
H10   H     H_    0.847290 0.289042 0.527542 0.000000
H11   H     H_    0.796960 0.387974 0.468865 0.000000
H12   H     H_    0.820840 0.478418 0.455408 0.000000
H13   H     H_    0.849774 0.322648 0.630622 0.000000
H14   H     H_    0.016327 0.514934 0.660438 0.000000
C17   C     C_3   0.693231 0.985273 0.356202 0.000000
C18   C     C_R   0.732795 0.933689 0.367482 0.000000
C19   C     C_R   0.747533 0.897070 0.418726 0.000000
C20   C     C_R   0.802166 0.857129 0.428956 0.000000
C21   C     C_R   0.844250 0.857990 0.387335 0.000000
N5    N     N_R   0.918905 0.844465 0.386808 0.000000
C22   C     C_R   0.938281 0.871601 0.332990 0.000000
N6    N     N_R   0.875165 0.889764 0.302135 0.000000
C23   C     C_R   0.820230 0.887394 0.337516 0.000000
C24   C     C_R   0.764490 0.925902 0.326794 0.000000
S3    S     S_3+2 0.010648 0.920896 0.313360 0.000000
O7    O     O_2   0.973624 0.967647 0.319309 0.000000
O8    O     O_2   0.032464 0.949468 0.253851 0.000000
O9    O     O_3   0.092395 0.912034 0.345017 0.000000
H15   H     H_    0.636455 0.978684 0.377064 0.000000
H16   H     H_    0.686618 0.010305 0.313215 0.000000
H17   H     H_    0.728091 0.007064 0.370017 0.000000
H18   H     H_    0.723262 0.904679 0.449669 0.000000
H19   H     H_    0.822159 0.833431 0.467468 0.000000
H20   H     H_    0.759336 0.956884 0.287428 0.000000
H21   H     H_    0.100245 0.947559 0.341670 0.000000
C25   C     C_3   0.925075 0.169170 0.174925 0.000000
C26   C     C_R   0.915685 0.118323 0.173471 0.000000
C27   C     C_R   0.898742 0.072544 0.220311 0.000000
C28   C     C_R   0.891112 0.024627 0.220452 0.000000
C29   C     C_R   0.903244 0.022783 0.173909 0.000000
N7    N     N_R   0.891347 0.981325 0.165384 0.000000
C30   C     C_R   0.907730 0.003441 0.111360 0.000000
N8    N     N_R   0.928274 0.057116 0.086658 0.000000
C31   C     C_R   0.920844 0.067579 0.127723 0.000000
C32   C     C_R   0.924436 0.116220 0.126288 0.000000
S4    S     S_3+2 0.893264 0.966364 0.077360 0.000000
O10   O     O_2   0.928394 0.910174 0.106237 0.000000
O11   O     O_2   0.936811 0.988344 0.023626 0.000000
O12   O     O_3   0.802431 0.956188 0.066502 0.000000
H22   H     H_    0.870685 0.180169 0.189427 0.000000
H23   H     H_    0.941594 0.201756 0.135073 0.000000
H24   H     H_    0.970299 0.163627 0.202178 0.000000
H25   H     H_    0.890298 0.074426 0.256877 0.000000
H26   H     H_    0.874204 0.990058 0.256054 0.000000
H27   H     H_    0.936529 0.151273 0.089573 0.000000
H28   H     H_    0.806977 0.923662 0.062420 0.000000
C33   C     C_3   0.723704 0.875527 0.997490 0.000000
C34   C     C_R   0.689193 0.824781 0.006372 0.000000
C35   C     C_R   0.616530 0.809116 0.029637 0.000000
C36   C     C_R   0.579708 0.769676 0.025930 0.000000
C37   C     C_R   0.623081 0.738364 0.010175 0.000000
N9    N     N_R   0.604145 0.689277 0.020506 0.000000
C38   C     C_R   0.675881 0.663549 0.029674 0.000000
N10   N     N_R   0.735840 0.698881 0.014232 0.000000
C39   C     C_R   0.699666 0.744645 0.003423 0.000000
C40   C     C_R   0.733047 0.789616 0.996067 0.000000
S5    S     S_3+2 0.693735 0.591577 0.073699 0.000000
O13   O     O_2   0.646551 0.565008 0.126313 0.000000
O14   O     O_2   0.771434 0.588334 0.096133 0.000000
O15   O     O_3   0.704897 0.542812 0.055211 0.000000
H29   H     H_    0.699262 0.909887 0.963620 0.000000
H30   H     H_    0.784463 0.877087 0.985649 0.000000
H31   H     H_    0.716439 0.880114 0.033492 0.000000
H32   H     H_    0.587609 0.826647 0.051558 0.000000
H33   H     H_    0.521464 0.760410 0.040805 0.000000
H34   H     H_    0.792862 0.794713 0.987708 0.000000
H35   H     H_    0.754748 0.525686 0.068565 0.000000
C41   C     C_3   0.569964 0.464025 0.137367 0.000000
C42   C     C_R   0.544496 0.499198 0.082857 0.000000
C43   C     C_R   0.547911 0.479691 0.046967 0.000000
C44   C     C_R   0.514144 0.507582 0.999007 0.000000
C45   C     C_R   0.474652 0.553760 0.989387 0.000000
N11   N     N_R   0.425933 0.582623 0.950727 0.000000
C46   C     C_R   0.413530 0.626873 0.958003 0.000000
N12   N     N_R   0.452243 0.626655 0.999165 0.000000
C47   C     C_R   0.484943 0.577767 0.019834 0.000000
C48   C     C_R   0.517143 0.550625 0.067855 0.000000
S6    S     S_3+2 0.345730 0.673735 0.918624 0.000000
O16   O     O_2   0.346795 0.660366 0.873510 0.000000
O17   O     O_2   0.364229 0.732814 0.884652 0.000000
O18   O     O_3   0.251295 0.665077 0.935786 0.000000
H36   H     H_    0.538066 0.426243 0.155227 0.000000
H37   H     H_    0.558270 0.483523 0.162405 0.000000
H38   H     H_    0.631770 0.454846 0.135801 0.000000
H39   H     H_    0.573589 0.441061 0.057791 0.000000
H40   H     H_    0.516105 0.492018 0.971482 0.000000
H41   H     H_    0.515530 0.567658 0.094210 0.000000
H42   H     H_    0.243900 0.626807 0.948172 0.000000
C49   C     C_3   0.706969 0.639424 0.172651 0.000000
C50   C     C_R   0.626450 0.658098 0.172237 0.000000
C51   C     C_R   0.595308 0.669267 0.211017 0.000000
C52   C     C_R   0.517758 0.675852 0.214771 0.000000
C53   C     C_R   0.474989 0.673776 0.178240 0.000000
N13   N     N_R   0.401220 0.663919 0.184557 0.000000
C54   C     C_R   0.388908 0.654383 0.142769 0.000000
N14   N     N_R   0.452490 0.664380 0.107800 0.000000
C55   C     C_R   0.505701 0.671709 0.135423 0.000000
C56   C     C_R   0.581070 0.660783 0.134293 0.000000
S7    S     S_3+2 0.331382 0.598654 0.158124 0.000000
O19   O     O_2   0.348854 0.554014 0.213680 0.000000
O20   O     O_2   0.355570 0.570613 0.125282 0.000000
O21   O     O_3   0.234131 0.603741 0.159680 0.000000
H43   H     H_    0.736900 0.665420 0.134134 0.000000
H44   H     H_    0.708536 0.597622 0.180224 0.000000
H45   H     H_    0.736536 0.639989 0.204586 0.000000
H46   H     H_    0.629782 0.667953 0.240945 0.000000
H47   H     H_    0.490454 0.674570 0.249570 0.000000
H48   H     H_    0.601280 0.645449 0.110301 0.000000
H49   H     H_    0.217854 0.569258 0.163649 0.000000
C57   C     C_3   0.212151 0.643572 0.044716 0.000000
C58   C     C_R   0.246663 0.697180 0.011559 0.000000
C59   C     C_R   0.207687 0.737310 0.970378 0.000000
C60   C     C_R   0.242313 0.784656 0.934471 0.000000
C61   C     C_R   0.317894 0.788761 0.937318 0.000000
N15   N     N_R   0.366070 0.824275 0.899921 0.000000
C62   C     C_R   0.434902 0.805411 0.922957 0.000000
N16   N     N_R   0.431638 0.756027 0.969780 0.000000
C63   C     C_R   0.356467 0.749015 0.977535 0.000000
C64   C     C_R   0.322135 0.703653 0.015561 0.000000
S8    S     S_3+2 0.508649 0.852767 0.899570 0.000000
O22   O     O_2   0.521068 0.878224 0.839485 0.000000
O23   O     O_2   0.589775 0.836873 0.917696 0.000000
O24   O     O_3   0.482918 0.907174 0.906042 0.000000
H50   H     H_    0.169928 0.643227 0.074949 0.000000
H51   H     H_    0.256976 0.613201 0.063272 0.000000
H52   H     H_    0.183506 0.631037 0.020117 0.000000
H53   H     H_    0.150915 0.729835 0.964306 0.000000
H54   H     H_    0.212402 0.816387 0.903468 0.000000
H55   H     H_    0.354973 0.671191 0.043709 0.000000
H56   H     H_    0.509733 0.935610 0.874939 0.000000
C65   C     C_3   0.107494 0.759912 0.052644 0.000000
C66   C     C_R   0.071922 0.784162 0.001426 0.000000
C67   C     C_R   0.094252 0.832928 0.960823 0.000000
C68   C     C_R   0.058681 0.854039 0.913910 0.000000
C69   C     C_R   0.995283 0.829383 0.911314 0.000000
N17   N     N_R   0.944593 0.848724 0.873472 0.000000
C70   C     C_R   0.885155 0.813529 0.896693 0.000000
N18   N     N_R   0.901211 0.770481 0.945613 0.000000
C71   C     C_R   0.971522 0.782633 0.952269 0.000000
C72   C     C_R   0.013605 0.757503 0.995808 0.000000
S9    S     S_3+2 0.794413 0.827302 0.867176 0.000000
O25   O     O_2   0.802944 0.862513 0.807018 0.000000
O26   O     O_2   0.744501 0.864251 0.881954 0.000000
O27   O     O_3   0.736489 0.776722 0.876157 0.000000
H57   H     H_    0.131813 0.720613 0.062331 0.000000
H58   H     H_    0.060712 0.752526 0.082149 0.000000
H59   H     H_    0.152301 0.785683 0.052811 0.000000
H60   H     H_    0.140686 0.853787 0.964972 0.000000
H61   H     H_    0.075736 0.891892 0.883158 0.000000
H62   H     H_    0.999473 0.720110 0.027591 0.000000
H63   H     H_    0.688673 0.782523 0.892870 0.000000
C73   C     C_3   0.014255 0.508891 0.121405 0.000000
C74   C     C_R   0.998253 0.556309 0.129240 0.000000
C75   C     C_R   0.042071 0.564642 0.162567 0.000000
C76   C     C_R   0.025942 0.607290 0.172037 0.000000
C77   C     C_R   0.963486 0.638525 0.150726 0.000000
N19   N     N_R   0.942619 0.682899 0.153909 0.000000
C78   C     C_R   0.904835 0.711655 0.106989 0.000000
N20   N     N_R   0.893420 0.682584 0.080432 0.000000
C79   C     C_R   0.930144 0.636340 0.110578 0.000000
C80   C     C_R   0.943452 0.593829 0.101013 0.000000
S10   S     S_3+2 0.891394 0.783533 0.076195 0.000000
O28   O     O_2   0.915104 0.805442 0.111601 0.000000
O29   O     O_2   0.807120 0.797657 0.075757 0.000000
O30   O     O_3   0.929509 0.830532 0.016580 0.000000
H64   H     H_    0.074468 0.509386 0.107020 0.000000
H65   H     H_    0.976219 0.509264 0.092128 0.000000
H66   H     H_    0.004605 0.472063 0.159638 0.000000
H67   H     H_    0.088586 0.537399 0.181518 0.000000
H68   H     H_    0.060736 0.615673 0.196174 0.000000
H69   H     H_    0.913415 0.589893 0.072046 0.000000
H70   H     H_    0.890707 0.838094 0.990918 0.000000
C81   C     C_3   0.634433 0.632141 0.934638 0.000000
C82   C     C_R   0.709434 0.608680 0.949430 0.000000
C83   C     C_R   0.732973 0.564583 0.944462 0.000000
C84   C     C_R   0.809878 0.556261 0.939787 0.000000
C85   C     C_R   0.858700 0.584213 0.952530 0.000000
N21   N     N_R   0.933959 0.590301 0.941689 0.000000
C86   C     C_R   0.950399 0.623788 0.961450 0.000000
N22   N     N_R   0.887287 0.643241 0.978485 0.000000
C87   C     C_R   0.831397 0.618008 0.970579 0.000000
C88   C     C_R   0.760062 0.637320 0.958883 0.000000
S11   S     S_3+2 0.044350 0.633622 0.970747 0.000000
O31   O     O_2   0.088878 0.580725 0.997166 0.000000
O32   O     O_2   0.048645 0.652943 0.011348 0.000000
O33   O     O_3   0.098561 0.675195 0.916808 0.000000
H71   H     H_    0.642668 0.669173 0.896534 0.000000
H72   H     H_    0.607221 0.641768 0.964510 0.000000
H73   H     H_    0.600113 0.602570 0.932481 0.000000
H74   H     H_    0.693802 0.543659 0.933866 0.000000
H75   H     H_    0.827844 0.532210 0.922103 0.000000
H76   H     H_    0.748083 0.678713 0.945574 0.000000
H77   H     H_    0.065266 0.684183 0.887336 0.000000
C89   C     C_3   0.343512 0.522793 0.718400 0.000000
C90   C     C_R   0.372961 0.567509 0.723077 0.000000
C91   C     C_R   0.409531 0.608659 0.679411 0.000000
C92   C     C_R   0.435041 0.651827 0.682387 0.000000
C93   C     C_R   0.423023 0.652458 0.729509 0.000000
N23   N     N_R   0.454959 0.685542 0.743100 0.000000
C94   C     C_R   0.448544 0.657523 0.797177 0.000000
N24   N     N_R   0.403507 0.613724 0.817045 0.000000
C95   C     C_R   0.390973 0.610375 0.773280 0.000000
C96   C     C_R   0.363584 0.567705 0.770955 0.000000
S12   S     S_3+2 0.527869 0.649519 0.832553 0.000000
O34   O     O_2   0.602597 0.668226 0.799294 0.000000
O35   O     O_2   0.543429 0.590040 0.869362 0.000000
O36   O     O_3   0.517062 0.679432 0.870514 0.000000
H78   H     H_    0.281180 0.526102 0.720102 0.000000
H79   H     H_    0.362236 0.484230 0.751047 0.000000
H80   H     H_    0.363039 0.525859 0.680012 0.000000
H81   H     H_    0.419527 0.606962 0.642895 0.000000
H82   H     H_    0.469247 0.681097 0.650042 0.000000
H83   H     H_    0.338391 0.534446 0.805631 0.000000
H84   H     H_    0.475814 0.704730 0.852256 0.000000
C97   C     C_3   0.088964 0.410034 0.075871 0.000000
C98   C     C_R   0.130480 0.455078 0.031422 0.000000
C99   C     C_R   0.195689 0.473802 0.040523 0.000000
C100  C     C_R   0.236495 0.512793 0.998236 0.000000
C101  C     C_R   0.214224 0.528628 0.948193 0.000000
N25   N     N_R   0.247303 0.566406 0.903549 0.000000
C102  C     C_R   0.183383 0.591384 0.874144 0.000000
N26   N     N_R   0.114017 0.563973 0.897002 0.000000
C103  C     C_R   0.139975 0.523303 0.942252 0.000000
C104  C     C_R   0.100431 0.482280 0.981994 0.000000
S13   S     S_3+2 0.190863 0.660312 0.821426 0.000000
O37   O     O_2   0.213738 0.695908 0.843669 0.000000
O38   O     O_2   0.116412 0.689244 0.799074 0.000000
O39   O     O_3   0.254694 0.679255 0.768407 0.000000
H85   H     H_    0.070217 0.382240 0.062404 0.000000
H86   H     H_    0.038697 0.425765 0.089563 0.000000
H87   H     H_    0.126693 0.388260 0.109293 0.000000
H88   H     H_    0.214559 0.458521 0.080187 0.000000
H89   H     H_    0.281094 0.533263 0.004717 0.000000
H90   H     H_    0.051210 0.469639 0.973251 0.000000
H91   H     H_    0.290141 0.702507 0.772872 0.000000
C105  C     C_3   0.395167 0.306661 0.113611 0.000000
C106  C     C_R   0.395944 0.354432 0.060102 0.000000
C107  C     C_R   0.375639 0.403516 0.055449 0.000000
C108  C     C_R   0.376664 0.447795 0.006204 0.000000
C109  C     C_R   0.394116 0.442985 0.961803 0.000000
N27   N     N_R   0.405479 0.482856 0.911811 0.000000
C110  C     C_R   0.437311 0.454653 0.886451 0.000000
N28   N     N_R   0.437785 0.399684 0.918138 0.000000
C111  C     C_R   0.414701 0.394860 0.965938 0.000000
C112  C     C_R   0.418113 0.350432 0.015154 0.000000
S14   S     S_3+2 0.505066 0.482649 0.830892 0.000000
O40   O     O_2   0.489403 0.469526 0.786811 0.000000
O41   O     O_2   0.580718 0.451912 0.848706 0.000000
O42   O     O_3   0.532971 0.547725 0.800345 0.000000
H92   H     H_    0.433551 0.312974 0.138937 0.000000
H93   H     H_    0.413864 0.270475 0.110708 0.000000
H94   H     H_    0.336808 0.300767 0.132308 0.000000
H95   H     H_    0.362192 0.407720 0.090436 0.000000
H96   H     H_    0.372132 0.485958 0.003385 0.000000
H97   H     H_    0.434784 0.312411 0.018958 0.000000
H98   H     H_    0.588727 0.545489 0.804208 0.000000
C113  C     C_3   0.089715 0.868865 0.076554 0.000000
C114  C     C_R   0.122953 0.824119 0.123491 0.000000
C115  C     C_R   0.191141 0.830803 0.140283 0.000000
C116  C     C_R   0.226818 0.787515 0.180137 0.000000
C117  C     C_R   0.198849 0.738035 0.196445 0.000000
N29   N     N_R   0.229116 0.690332 0.229751 0.000000
C118  C     C_R   0.164536 0.658404 0.244640 0.000000
N30   N     N_R   0.096323 0.686356 0.223115 0.000000
C119  C     C_R   0.124699 0.734068 0.188896 0.000000
C120  C     C_R   0.085815 0.776258 0.151943 0.000000
S15   S     S_3+2 0.174422 0.587036 0.284482 0.000000
O43   O     O_2   0.259931 0.573313 0.289317 0.000000
O44   O     O_2   0.152455 0.554886 0.257658 0.000000
O45   O     O_3   0.139432 0.553405 0.348792 0.000000
H99   H     H_    0.085239 0.905432 0.080761 0.000000
H100  H     H_    0.033342 0.858556 0.069825 0.000000
H101  H     H_    0.128700 0.875783 0.042403 0.000000
H102  H     H_    0.214715 0.870154 0.123495 0.000000
H103  H     H_    0.270667 0.793098 0.200753 0.000000
H104  H     H_    0.028774 0.770835 0.146073 0.000000
H105  H     H_    0.097404 0.576388 0.351211 0.000000
C121  C     C_3   0.326009 0.841332 0.033665 0.000000
C122  C     C_R   0.358095 0.841816 0.079857 0.000000
C123  C     C_R   0.365034 0.889182 0.081210 0.000000
C124  C     C_R   0.396049 0.890624 0.123463 0.000000
C125  C     C_R   0.422253 0.844274 0.163153 0.000000
N31   N     N_R   0.453249 0.836099 0.208340 0.000000
C126  C     C_R   0.447019 0.781385 0.236870 0.000000
N32   N     N_R   0.406441 0.757136 0.215122 0.000000
C127  C     C_R   0.402043 0.797227 0.165779 0.000000
C128  C     C_R   0.373807 0.794632 0.123935 0.000000
S16   S     S_3+2 0.486439 0.743834 0.295544 0.000000
O46   O     O_2   0.509510 0.775626 0.322129 0.000000
O47   O     O_2   0.556256 0.709151 0.296432 0.000000
O48   O     O_3   0.417036 0.701487 0.332931 0.000000
H106  H     H_    0.270688 0.863249 0.024919 0.000000
H107  H     H_    0.316633 0.799743 0.042476 0.000000
H108  H     H_    0.366506 0.860153 0.998817 0.000000
H109  H     H_    0.347058 0.925600 0.048449 0.000000
H110  H     H_    0.399167 0.926809 0.125283 0.000000
H111  H     H_    0.358574 0.757451 0.126630 0.000000
H112  H     H_    0.369512 0.720493 0.316384 0.000000
C129  C     C_3   0.174571 0.540909 0.497760 0.000000
C130  C     C_R   0.229148 0.570448 0.452409 0.000000
C131  C     C_R   0.202157 0.607054 0.404658 0.000000
C132  C     C_R   0.249869 0.629287 0.359598 0.000000
C133  C     C_R   0.324238 0.613153 0.363613 0.000000
N33   N     N_R   0.378758 0.622697 0.324695 0.000000
C134  C     C_R   0.441419 0.596139 0.355732 0.000000
N34   N     N_R   0.427371 0.577848 0.410049 0.000000
C135  C     C_R   0.352262 0.585224 0.412376 0.000000
C136  C     C_R   0.306004 0.561322 0.456913 0.000000
S17   S     S_3+2 0.517214 0.565954 0.333794 0.000000
O49   O     O_2   0.501326 0.565062 0.282549 0.000000
O50   O     O_2   0.519838 0.505791 0.371836 0.000000
O51   O     O_3   0.609802 0.584852 0.328056 0.000000
H113  H     H_    0.139041 0.569727 0.505243 0.000000
H114  H     H_    0.205397 0.514350 0.533500 0.000000
H115  H     H_    0.137453 0.516794 0.488110 0.000000
H116  H     H_    0.142400 0.614991 0.402961 0.000000
H117  H     H_    0.228515 0.656588 0.322775 0.000000
H118  H     H_    0.328855 0.531916 0.492637 0.000000
H119  H     H_    0.640512 0.553445 0.331577 0.000000
C137  C     C_3   0.105459 0.097456 0.652829 0.000000
C138  C     C_R   0.138291 0.052324 0.700032 0.000000
C139  C     C_R   0.215705 0.049682 0.705190 0.000000
C140  C     C_R   0.248579 0.006295 0.746178 0.000000
C141  C     C_R   0.205169 0.961819 0.777085 0.000000
N35   N     N_R   0.230438 0.910360 0.803740 0.000000
C142  C     C_R   0.165113 0.882947 0.808416 0.000000
N36   N     N_R   0.099256 0.914968 0.792521 0.000000
C143  C     C_R   0.128455 0.964215 0.770742 0.000000
C144  C     C_R   0.093366 0.010667 0.735481 0.000000
S18   S     S_3+2 0.174607 0.819791 0.809683 0.000000
O52   O     O_2   0.144931 0.774171 0.862206 0.000000
O53   O     O_2   0.258208 0.802369 0.810180 0.000000
O54   O     O_3   0.137641 0.810909 0.760937 0.000000
H120  H     H_    0.124036 0.135651 0.648748 0.000000
H121  H     H_    0.126651 0.094816 0.617024 0.000000
H122  H     H_    0.042499 0.095809 0.656396 0.000000
H123  H     H_    0.251243 0.081613 0.676428 0.000000
H124  H     H_    0.308902 0.005300 0.745518 0.000000
H125  H     H_    0.033879 0.012741 0.730289 0.000000
H126  H     H_    0.180494 0.818506 0.734335 0.000000
C145  C     C_3   0.292640 0.935065 0.562538 0.000000
C146  C     C_R   0.312694 0.912995 0.618595 0.000000
C147  C     C_R   0.287254 0.938951 0.646676 0.000000
C148  C     C_R   0.310320 0.920928 0.697223 0.000000
C149  C     C_R   0.353134 0.875185 0.720864 0.000000
N37   N     N_R   0.387481 0.856205 0.767149 0.000000
C150  C     C_R   0.438943 0.818886 0.764259 0.000000
N38   N     N_R   0.430153 0.811190 0.720735 0.000000
C151  C     C_R   0.377815 0.849100 0.693720 0.000000
C152  C     C_R   0.360915 0.869061 0.641508 0.000000
S19   S     S_3+2 0.530948 0.805880 0.793132 0.000000
O55   O     O_2   0.582294 0.854655 0.763572 0.000000
O56   O     O_2   0.576154 0.767397 0.778994 0.000000
O57   O     O_3   0.550405 0.779925 0.858275 0.000000
H127  H     H_    0.229789 0.935636 0.560752 0.000000
H128  H     H_    0.318616 0.910192 0.545452 0.000000
H129  H     H_    0.313883 0.976355 0.539198 0.000000
H130  H     H_    0.253810 0.975446 0.627817 0.000000
H131  H     H_    0.301986 0.945094 0.715363 0.000000
H132  H     H_    0.387965 0.853849 0.617340 0.000000
H133  H     H_    0.505507 0.759281 0.878437 0.000000
C153  C     C_3   0.573041 0.100512 0.627937 0.000000
C154  C     C_R   0.537281 0.057160 0.677199 0.000000
C155  C     C_R   0.521966 0.008433 0.680566 0.000000
C156  C     C_R   0.480584 0.970721 0.723902 0.000000
C157  C     C_R   0.455239 0.982712 0.763263 0.000000
N39   N     N_R   0.404426 0.956107 0.804137 0.000000
C158  C     C_R   0.393713 0.990651 0.825328 0.000000
N40   N     N_R   0.439366 0.035538 0.801003 0.000000
C159  C     C_R   0.474557 0.029405 0.761210 0.000000
C160  C     C_R   0.515461 0.066970 0.718656 0.000000
S20   S     S_3+2 0.317965 0.981221 0.873399 0.000000
O58   O     O_2   0.284610 0.925276 0.896476 0.000000
O59   O     O_2   0.247728 0.016297 0.848579 0.000000
O60   O     O_3   0.332780 0.988783 0.927161 0.000000
H134  H     H_    0.589759 0.086050 0.599160 0.000000
H135  H     H_    0.623765 0.114717 0.637802 0.000000
H136  H     H_    0.531677 0.134225 0.609974 0.000000
H137  H     H_    0.539379 0.000486 0.648330 0.000000
H138  H     H_    0.467465 0.934109 0.725001 0.000000
H139  H     H_    0.525282 0.104692 0.715705 0.000000
H140  H     H_    0.354268 0.953887 0.952652 0.000000
C161  C     C_3   0.188523 0.600535 0.739698 0.000000
C162  C     C_R   0.118241 0.633022 0.733947 0.000000
C163  C     C_R   0.103281 0.681886 0.689726 0.000000
C164  C     C_R   0.037425 0.711210 0.688557 0.000000
C165  C     C_R   0.985459 0.688501 0.730849 0.000000
N41   N     N_R   0.913616 0.705130 0.736732 0.000000
C166  C     C_R   0.892028 0.665321 0.786895 0.000000
N42   N     N_R   0.949837 0.628407 0.813774 0.000000
C167  C     C_R   0.004059 0.642558 0.774956 0.000000
C168  C     C_R   0.068338 0.613597 0.776771 0.000000
S21   S     S_3+2 0.797786 0.663775 0.812099 0.000000
O61   O     O_2   0.753758 0.715747 0.780657 0.000000
O62   O     O_2   0.802151 0.667976 0.861618 0.000000
O63   O     O_3   0.736283 0.612728 0.828968 0.000000
H141  H     H_    0.172738 0.559382 0.752480 0.000000
H142  H     H_    0.220308 0.597531 0.772397 0.000000
H143  H     H_    0.224664 0.615876 0.703121 0.000000
H144  H     H_    0.141260 0.696732 0.655182 0.000000
H145  H     H_    0.026704 0.749344 0.654603 0.000000
H146  H     H_    0.079601 0.575686 0.810611 0.000000
H147  H     H_    0.769600 0.581012 0.838534 0.000000
C169  C     C_3   0.844170 0.322209 0.113481 0.000000
C170  C     C_R   0.870754 0.366744 0.061522 0.000000
C171  C     C_R   0.894505 0.413452 0.059188 0.000000
C172  C     C_R   0.919554 0.455840 0.011670 0.000000
C173  C     C_R   0.920076 0.450848 0.966315 0.000000
N43   N     N_R   0.939332 0.487818 0.915344 0.000000
C174  C     C_R   0.913125 0.463010 0.888449 0.000000
N44   N     N_R   0.883496 0.413014 0.919648 0.000000
C175  C     C_R   0.891598 0.406011 0.968587 0.000000
C176  C     C_R   0.869130 0.362655 0.015643 0.000000
S22   S     S_3+2 0.904448 0.496492 0.820596 0.000000
O64   O     O_2   0.955511 0.543377 0.802963 0.000000
O65   O     O_2   0.827809 0.525525 0.802767 0.000000
O66   O     O_3   0.936963 0.472827 0.778791 0.000000
H148  H     H_    0.891686 0.308028 0.140667 0.000000
H149  H     H_    0.824448 0.288748 0.108504 0.000000
H150  H     H_    0.796268 0.336638 0.130681 0.000000
H151  H     H_    0.894155 0.416639 0.095077 0.000000
H152  H     H_    0.939545 0.491112 0.011185 0.000000
H153  H     H_    0.846901 0.327801 0.016215 0.000000
H154  H     H_    0.912613 0.495827 0.745392 0.000000
C177  C     C_3   0.696492 0.375647 0.718549 0.000000
C178  C     C_R   0.615165 0.369782 0.730565 0.000000
C179  C     C_R   0.577683 0.359591 0.696506 0.000000
C180  C     C_R   0.502373 0.350325 0.705315 0.000000
C181  C     C_R   0.466134 0.354321 0.746668 0.000000
N45   N     N_R   0.392365 0.346795 0.758657 0.000000
C182  C     C_R   0.386416 0.341834 0.809030 0.000000
N46   N     N_R   0.454268 0.348878 0.827094 0.000000
C183  C     C_R   0.502907 0.358512 0.784701 0.000000
C184  C     C_R   0.579630 0.368310 0.776379 0.000000
S23   S     S_3+2 0.304547 0.314673 0.851725 0.000000
O67   O     O_2   0.233693 0.316572 0.822882 0.000000
O68   O     O_2   0.279256 0.348629 0.878012 0.000000
O69   O     O_3   0.307438 0.250404 0.901107 0.000000
H155  H     H_    0.719015 0.340886 0.714410 0.000000
H156  H     H_    0.720492 0.376985 0.751781 0.000000
H157  H     H_    0.706161 0.411597 0.679894 0.000000
H158  H     H_    0.608401 0.356876 0.664085 0.000000
H159  H     H_    0.475472 0.335203 0.683136 0.000000
H160  H     H_    0.610814 0.373914 0.804177 0.000000
H161  H     H_    0.254048 0.239264 0.905875 0.000000
C185  C     C_3   0.211286 0.322625 0.050094 0.000000
C186  C     C_R   0.258373 0.283026 0.040545 0.000000
C187  C     C_R   0.262753 0.230910 0.080688 0.000000
C188  C     C_R   0.300470 0.192414 0.071246 0.000000
C189  C     C_R   0.335410 0.208151 0.022885 0.000000
N47   N     N_R   0.377767 0.176906 0.008361 0.000000
C190  C     C_R   0.427759 0.213220 0.970481 0.000000
N48   N     N_R   0.413288 0.265659 0.958486 0.000000
C191  C     C_R   0.350512 0.260433 0.990637 0.000000
C192  C     C_R   0.303311 0.298500 0.994277 0.000000
S24   S     S_3+2 0.515703 0.195890 0.950271 0.000000
O70   O     O_2   0.575350 0.185861 0.990569 0.000000
O71   O     O_2   0.544686 0.247170 0.903185 0.000000
O72   O     O_3   0.531181 0.148647 0.930282 0.000000
H162  H     H_    0.226041 0.363853 0.019847 0.000000
H163  H     H_    0.221482 0.317767 0.089640 0.000000
H164  H     H_    0.150204 0.315655 0.048781 0.000000
H165  H     H_    0.234702 0.220187 0.118915 0.000000
H166  H     H_    0.307532 0.151675 0.101822 0.000000
H167  H     H_    0.304959 0.339577 0.964284 0.000000
H168  H     H_    0.585817 0.152058 0.918511 0.000000
C193  C     C_3   0.594035 0.316237 0.099138 0.000000
C194  C     C_R   0.614189 0.342702 0.041317 0.000000
C195  C     C_R   0.669697 0.381134 0.020738 0.000000
C196  C     C_R   0.705148 0.393148 0.972404 0.000000
C197  C     C_R   0.679817 0.368622 0.945885 0.000000
N49   N     N_R   0.721018 0.352541 0.914939 0.000000
C198  C     C_R   0.667323 0.327266 0.902577 0.000000
N50   N     N_R   0.594625 0.327914 0.924489 0.000000
C199  C     C_R   0.608809 0.348117 0.956742 0.000000
C200  C     C_R   0.583082 0.326048 0.008837 0.000000
S25   S     S_3+2 0.701978 0.274480 0.891168 0.000000
O73   O     O_2   0.706346 0.220468 0.941283 0.000000
O74   O     O_2   0.786768 0.283812 0.876745 0.000000
O75   O     O_3   0.668199 0.260885 0.845305 0.000000
H169  H     H_    0.646817 0.300575 0.121030 0.000000
H170  H     H_    0.555766 0.282412 0.110210 0.000000
H171  H     H_    0.565906 0.345414 0.110037 0.000000
H172  H     H_    0.692067 0.396194 0.044933 0.000000
H173  H     H_    0.751028 0.420517 0.956479 0.000000
H174  H     H_    0.549616 0.290517 0.025755 0.000000
H175  H     H_    0.684774 0.291246 0.811793 0.000000
C201  C     C_3   0.761227 0.018009 0.637454 0.000000
C202  C     C_R   0.796174 0.031392 0.674364 0.000000
C203  C     C_R   0.785987 0.082240 0.668486 0.000000
C204  C     C_R   0.812824 0.093945 0.705350 0.000000
C205  C     C_R   0.855241 0.055661 0.744339 0.000000
N51   N     N_R   0.884535 0.058789 0.784522 0.000000
C206  C     C_R   0.923491 0.010420 0.809127 0.000000
N52   N     N_R   0.919721 0.978363 0.785504 0.000000
C207  C     C_R   0.872853 0.007752 0.746249 0.000000
C208  C     C_R   0.838588 0.993154 0.714237 0.000000
S26   S     S_3+2 0.968249 0.987570 0.868711 0.000000
O76   O     O_2   0.053734 0.981355 0.859059 0.000000
O77   O     O_2   0.945507 0.930034 0.906723 0.000000
O78   O     O_3   0.958804 0.017744 0.907217 0.000000
H176  H     H_    0.698439 0.021383 0.641641 0.000000
H177  H     H_    0.777685 0.976553 0.647136 0.000000
H178  H     H_    0.781851 0.045974 0.596470 0.000000
H179  H     H_    0.755165 0.112318 0.635928 0.000000
H180  H     H_    0.804401 0.132927 0.701721 0.000000
H181  H     H_    0.841740 0.952783 0.721206 0.000000
H182  H     H_    0.916788 0.998124 0.933032 0.000000
C209  C     C_3   0.995313 0.045789 0.573720 0.000000
C210  C     C_R   0.974760 0.988815 0.606979 0.000000
C211  C     C_R   0.950153 0.961006 0.582953 0.000000
C212  C     C_R   0.930026 0.908034 0.613052 0.000000
C213  C     C_R   0.928571 0.885394 0.666054 0.000000
N53   N     N_R   0.906631 0.835478 0.701022 0.000000
C214  C     C_R   0.923885 0.834140 0.748178 0.000000
N54   N     N_R   0.948987 0.881748 0.742826 0.000000
C215  C     C_R   0.953573 0.912279 0.690082 0.000000
C216  C     C_R   0.978825 0.963690 0.661325 0.000000
S27   S     S_3+2 0.943324 0.775034 0.806561 0.000000
O79   O     O_2   0.984933 0.733446 0.795835 0.000000
O80   O     O_2   0.875160 0.745907 0.842694 0.000000
O81   O     O_3   0.004131 0.780455 0.846008 0.000000
H183  H     H_    0.045129 0.048843 0.546710 0.000000
H184  H     H_    0.009251 0.063132 0.598981 0.000000
H185  H     H_    0.946279 0.068350 0.550055 0.000000
H186  H     H_    0.946349 0.981538 0.540551 0.000000
H187  H     H_    0.912725 0.883674 0.597631 0.000000
H188  H     H_    0.997928 0.984531 0.680464 0.000000
H189  H     H_    0.024353 0.816250 0.822598 0.000000
C217  C     C_3   0.696058 0.813505 0.543860 0.000000
C218  C     C_R   0.615846 0.806882 0.536306 0.000000
C219  C     C_R   0.590295 0.801446 0.494977 0.000000
C220  C     C_R   0.513894 0.792189 0.493922 0.000000
C221  C     C_R   0.466127 0.787559 0.534789 0.000000
N55   N     N_R   0.390820 0.779173 0.541677 0.000000
C222  C     C_R   0.377291 0.774384 0.592147 0.000000
N56   N     N_R   0.441909 0.778391 0.615526 0.000000
C223  C     C_R   0.493944 0.789647 0.576149 0.000000
C224  C     C_R   0.565640 0.803668 0.574778 0.000000
S28   S     S_3+2 0.286824 0.759994 0.626281 0.000000
O82   O     O_2   0.282150 0.772061 0.672762 0.000000
O83   O     O_2   0.277651 0.699687 0.655778 0.000000
O84   O     O_3   0.204044 0.785546 0.594467 0.000000
H190  H     H_    0.733621 0.797259 0.523451 0.000000
H191  H     H_    0.707613 0.789292 0.585940 0.000000
H192  H     H_    0.706916 0.855274 0.533457 0.000000
H193  H     H_    0.628346 0.807549 0.462279 0.000000
H194  H     H_    0.490939 0.790841 0.461522 0.000000
H195  H     H_    0.582026 0.816592 0.600087 0.000000
H196  H     H_    0.191827 0.817203 0.599299 0.000000
C225  C     C_3   0.713419 0.974087 0.562928 0.000000
C226  C     C_R   0.685471 0.923385 0.608314 0.000000
C227  C     C_R   0.607899 0.918681 0.618255 0.000000
C228  C     C_R   0.577132 0.869612 0.650038 0.000000
C229  C     C_R   0.624812 0.825673 0.672400 0.000000
N57   N     N_R   0.604084 0.775312 0.687547 0.000000
C230  C     C_R   0.674100 0.749645 0.690619 0.000000
N58   N     N_R   0.737096 0.782016 0.681478 0.000000
C231  C     C_R   0.702187 0.830142 0.666856 0.000000
C232  C     C_R   0.733566 0.879246 0.634239 0.000000
S29   S     S_3+2 0.678605 0.687702 0.687915 0.000000
O85   O     O_2   0.601289 0.660375 0.706365 0.000000
O86   O     O_2   0.730223 0.643757 0.726961 0.000000
O87   O     O_3   0.697426 0.688426 0.628541 0.000000
H197  H     H_    0.699656 0.975063 0.525533 0.000000
H198  H     H_    0.775604 0.977664 0.563817 0.000000
H199  H     H_    0.683179 0.008425 0.564197 0.000000
H200  H     H_    0.570678 0.952314 0.596041 0.000000
H201  H     H_    0.517616 0.865576 0.648539 0.000000
H202  H     H_    0.792393 0.881428 0.622792 0.000000
H203  H     H_    0.647407 0.682406 0.618692 0.000000
C233  C     C_3   0.558358 0.277499 0.616482 0.000000
C234  C     C_R   0.603450 0.240912 0.662570 0.000000
C235  C     C_R   0.679011 0.250947 0.662925 0.000000
C236  C     C_R   0.724141 0.214074 0.701678 0.000000
C237  C     C_R   0.690455 0.170830 0.744399 0.000000
N59   N     N_R   0.724622 0.129618 0.785456 0.000000
C238  C     C_R   0.663834 0.094433 0.808525 0.000000
N60   N     N_R   0.592437 0.116943 0.789598 0.000000
C239  C     C_R   0.613946 0.162962 0.746292 0.000000
C240  C     C_R   0.571143 0.195917 0.703670 0.000000
S30   S     S_3+2 0.683978 0.026011 0.825169 0.000000
O88   O     O_2   0.686085 0.020598 0.774673 0.000000
O89   O     O_2   0.619738 0.988133 0.856322 0.000000
O90   O     O_3   0.765420 0.993387 0.855151 0.000000
H204  H     H_    0.558069 0.318392 0.611703 0.000000
H205  H     H_    0.498800 0.263906 0.622322 0.000000
H206  H     H_    0.584765 0.278160 0.580122 0.000000
H207  H     H_    0.703293 0.286943 0.631487 0.000000
H208  H     H_    0.783977 0.220564 0.698073 0.000000
H209  H     H_    0.515060 0.186265 0.699614 0.000000
H210  H     H_    0.753525 0.979805 0.893343 0.000000
C241  C     C_3   0.134565 0.214915 0.678784 0.000000
C242  C     C_R   0.210860 0.201277 0.698585 0.000000
C243  C     C_R   0.232131 0.148474 0.728251 0.000000
C244  C     C_R   0.304624 0.135399 0.745492 0.000000
C245  C     C_R   0.350191 0.176269 0.737193 0.000000
N61   N     N_R   0.413272 0.171157 0.762067 0.000000
C246  C     C_R   0.424945 0.222183 0.752754 0.000000
N62   N     N_R   0.372467 0.260118 0.720102 0.000000
C247  C     C_R   0.326570 0.228438 0.711981 0.000000
C248  C     C_R   0.257941 0.241803 0.690318 0.000000
S31   S     S_3+2 0.488326 0.229217 0.794337 0.000000
O91   O     O_2   0.513188 0.172098 0.830901 0.000000
O92   O     O_2   0.451037 0.241164 0.837040 0.000000
O93   O     O_3   0.576784 0.255697 0.775865 0.000000
H211  H     H_    0.139289 0.229727 0.635609 0.000000
H212  H     H_    0.110830 0.245804 0.688652 0.000000
H213  H     H_    0.098985 0.179080 0.697850 0.000000
H214  H     H_    0.191261 0.117597 0.739444 0.000000
H215  H     H_    0.321397 0.094507 0.769547 0.000000
H216  H     H_    0.239832 0.282334 0.670215 0.000000
H217  H     H_    0.610736 0.224395 0.794262 0.000000
C249  C     C_3   0.551915 0.919538 0.981556 0.000000
C250  C     C_R   0.511066 0.966561 0.974993 0.000000
C251  C     C_R   0.490078 0.967612 0.020647 0.000000
C252  C     C_R   0.442299 0.006759 0.018962 0.000000
C253  C     C_R   0.430063 0.049159 0.972096 0.000000
N63   N     N_R   0.382332 0.089853 0.963598 0.000000
C254  C     C_R   0.378730 0.113851 0.908766 0.000000
N64   N     N_R   0.428770 0.091322 0.884970 0.000000
C255  C     C_R   0.457734 0.050482 0.926646 0.000000
C256  C     C_R   0.496044 0.008579 0.926456 0.000000
S32   S     S_3+2 0.295906 0.150710 0.876480 0.000000
O94   O     O_2   0.235478 0.151734 0.916684 0.000000
O95   O     O_2   0.253443 0.119614 0.855501 0.000000
O96   O     O_3   0.298063 0.214896 0.825943 0.000000
H218  H     H_    0.510004 0.887120 0.996367 0.000000
H219  H     H_    0.592703 0.912286 0.011582 0.000000
H220  H     H_    0.582253 0.925848 0.944695 0.000000
H221  H     H_    0.506918 0.935351 0.057877 0.000000
H222  H     H_    0.412607 0.002958 0.052998 0.000000
H223  H     H_    0.508346 0.008165 0.889973 0.000000
H224  H     H_    0.246574 0.221344 0.811927 0.000000
C257  C     C_3   0.049987 0.449963 0.316743 0.000000
C258  C     C_R   0.015569 0.485457 0.337398 0.000000
C259  C     C_R   0.009280 0.466673 0.391465 0.000000
C260  C     C_R   0.969091 0.496176 0.411492 0.000000
C261  C     C_R   0.935855 0.543541 0.376421 0.000000
N65   N     N_R   0.885829 0.574378 0.387382 0.000000
C262  C     C_R   0.878415 0.618266 0.338035 0.000000
N66   N     N_R   0.927251 0.618483 0.297925 0.000000
C263  C     C_R   0.956376 0.567692 0.323509 0.000000
C264  C     C_R   0.990751 0.536879 0.303100 0.000000
S33   S     S_3+2 0.791680 0.653979 0.324077 0.000000
O97   O     O_2   0.728116 0.625041 0.365406 0.000000
O98   O     O_2   0.757987 0.654608 0.276664 0.000000
O99   O     O_3   0.789239 0.717482 0.313991 0.000000
H225  H     H_    0.109523 0.439543 0.329010 0.000000
H226  H     H_    0.049703 0.470043 0.273028 0.000000
H227  H     H_    0.016558 0.412922 0.333242 0.000000
H228  H     H_    0.032697 0.427894 0.418054 0.000000
H229  H     H_    0.964410 0.481886 0.453367 0.000000
H230  H     H_    0.990747 0.549340 0.262395 0.000000
H231  H     H_    0.838893 0.720830 0.326286 0.000000
C265  C     C_3   0.627586 0.837828 0.141847 0.000000
C266  C     C_R   0.703643 0.815345 0.161915 0.000000
C267  C     C_R   0.726823 0.765053 0.170358 0.000000
C268  C     C_R   0.797873 0.744156 0.189332 0.000000
C269  C     C_R   0.841550 0.772064 0.204697 0.000000
N67   N     N_R   0.914931 0.761719 0.219526 0.000000
C270  C     C_R   0.927566 0.807722 0.224158 0.000000
N68   N     N_R   0.866419 0.842639 0.214129 0.000000
C271  C     C_R   0.815688 0.820491 0.198750 0.000000
C272  C     C_R   0.751039 0.844747 0.173191 0.000000
S34   S     S_3+2 0.015956 0.833315 0.223997 0.000000
O100  O     O_2   0.079623 0.792944 0.234047 0.000000
O101  O     O_2   0.021059 0.842311 0.271405 0.000000
O102  O     O_3   0.046499 0.891814 0.171216 0.000000
H232  H     H_    0.597426 0.849490 0.169814 0.000000
H233  H     H_    0.593619 0.807607 0.139218 0.000000
H234  H     H_    0.634178 0.873880 0.102797 0.000000
H235  H     H_    0.692995 0.744957 0.156170 0.000000
H236  H     H_    0.818939 0.707619 0.190677 0.000000
H237  H     H_    0.737654 0.885888 0.161430 0.000000
H238  H     H_    0.028132 0.919822 0.180310 0.000000
C273  C     C_3   0.206139 0.897047 0.215302 0.000000
C274  C     C_R   0.245672 0.870418 0.265558 0.000000
C275  C     C_R   0.206073 0.854692 0.312942 0.000000
C276  C     C_R   0.241853 0.832100 0.359991 0.000000
C277  C     C_R   0.319607 0.830071 0.359259 0.000000
N69   N     N_R   0.367083 0.822151 0.398111 0.000000
C278  C     C_R   0.430929 0.849410 0.366344 0.000000
N70   N     N_R   0.428367 0.861843 0.313288 0.000000
C279  C     C_R   0.357556 0.849552 0.311202 0.000000
C280  C     C_R   0.322620 0.865724 0.264911 0.000000
S35   S     S_3+2 0.477907 0.894994 0.380603 0.000000
O103  O     O_2   0.444965 0.893923 0.431810 0.000000
O104  O     O_2   0.460708 0.953334 0.340889 0.000000
O105  O     O_3   0.574412 0.891533 0.384448 0.000000
H239  H     H_    0.171773 0.867155 0.213262 0.000000
H240  H     H_    0.247593 0.913443 0.180789 0.000000
H241  H     H_    0.168919 0.929846 0.214413 0.000000
H242  H     H_    0.145296 0.858115 0.313009 0.000000
H243  H     H_    0.207661 0.824184 0.393532 0.000000
H244  H     H_    0.353189 0.883528 0.227564 0.000000
H245  H     H_    0.581534 0.899293 0.413766 0.000000
C281  C     C_3   0.244400 0.995847 0.303073 0.000000
C282  C     C_R   0.269943 0.000792 0.250721 0.000000
C283  C     C_R   0.226866 0.028811 0.206950 0.000000
C284  C     C_R   0.257889 0.040535 0.157190 0.000000
C285  C     C_R   0.330640 0.024763 0.152287 0.000000
N71   N     N_R   0.377342 0.040773 0.108216 0.000000
C286  C     C_R   0.441698 0.008891 0.130124 0.000000
N72   N     N_R   0.430616 0.970265 0.182793 0.000000
C287  C     C_R   0.364382 0.987109 0.195940 0.000000
C288  C     C_R   0.337938 0.977432 0.245562 0.000000
S36   S     S_3+2 0.534876 0.026680 0.098145 0.000000
O106  O     O_2   0.589197 0.979795 0.106644 0.000000
O107  O     O_2   0.578497 0.056511 0.119545 0.000000
O108  O     O_3   0.540165 0.070530 0.032612 0.000000
H246  H     H_    0.287670 0.013562 0.315969 0.000000
H247  H     H_    0.238474 0.953116 0.332550 0.000000
H248  H     H_    0.189432 0.017515 0.300148 0.000000
H249  H     H_    0.170432 0.043446 0.211210 0.000000
H250  H     H_    0.226035 0.060628 0.123372 0.000000
H251  H     H_    0.370959 0.954921 0.279356 0.000000
H252  H     H_    0.495366 0.093882 0.029463 0.000000
C289  C     C_3   0.536474 0.082396 0.231387 0.000000
C290  C     C_R   0.586236 0.043530 0.222361 0.000000
C291  C     C_R   0.660492 0.056859 0.202183 0.000000
C292  C     C_R   0.708333 0.020280 0.195686 0.000000
C293  C     C_R   0.681888 0.970125 0.211291 0.000000
N73   N     N_R   0.721580 0.924090 0.223317 0.000000
C294  C     C_R   0.663699 0.887536 0.241023 0.000000
N74   N     N_R   0.591480 0.909724 0.236277 0.000000
C295  C     C_R   0.606346 0.960291 0.223272 0.000000
C296  C     C_R   0.557988 0.995222 0.231546 0.000000
S37   S     S_3+2 0.682530 0.822027 0.290364 0.000000
O109  O     O_2   0.661955 0.778524 0.277110 0.000000
O110  O     O_2   0.634757 0.808492 0.341539 0.000000
O111  O     O_3   0.774578 0.809861 0.308675 0.000000
H253  H     H_    0.561762 0.090711 0.260823 0.000000
H254  H     H_    0.478729 0.066015 0.246393 0.000000
H255  H     H_    0.531957 0.120054 0.193602 0.000000
H256  H     H_    0.681462 0.095766 0.192015 0.000000
H257  H     H_    0.764052 0.031579 0.178916 0.000000
H258  H     H_    0.500839 0.984152 0.247303 0.000000
H259  H     H_    0.770585 0.786406 0.347134 0.000000
C297  C     C_3   0.159559 0.580855 0.645031 0.000000
C298  C     C_R   0.233448 0.587799 0.614940 0.000000
C299  C     C_R   0.258340 0.544152 0.610061 0.000000
C300  C     C_R   0.319375 0.547420 0.577220 0.000000
C301  C     C_R   0.355848 0.594966 0.548679 0.000000
N75   N     N_R   0.413194 0.606387 0.511443 0.000000
C302  C     C_R   0.418010 0.660687 0.491283 0.000000
N76   N     N_R   0.364585 0.683761 0.511518 0.000000
C303  C     C_R   0.329627 0.639989 0.550805 0.000000
C304  C     C_R   0.268835 0.637187 0.585115 0.000000
S38   S     S_3+2 0.463660 0.698412 0.431534 0.000000
O112  O     O_2   0.502456 0.664162 0.408696 0.000000
O113  O     O_2   0.526009 0.735752 0.427525 0.000000
O114  O     O_3   0.395651 0.737217 0.391010 0.000000
H260  H     H_    0.118183 0.566164 0.628244 0.000000
H261  H     H_    0.138737 0.618920 0.642680 0.000000
H262  H     H_    0.164531 0.548278 0.685494 0.000000
H263  H     H_    0.227349 0.507364 0.630585 0.000000
H264  H     H_    0.332040 0.513522 0.572418 0.000000
H265  H     H_    0.245258 0.672827 0.585051 0.000000
H266  H     H_    0.348627 0.716294 0.405585 0.000000
C305  C     C_3   0.367557 0.397660 0.432067 0.000000
C306  C     C_R   0.375987 0.397127 0.483338 0.000000
C307  C     C_R   0.357239 0.351569 0.530309 0.000000
C308  C     C_R   0.363046 0.350321 0.578490 0.000000
C309  C     C_R   0.388700 0.394784 0.578638 0.000000
N77   N     N_R   0.398319 0.401391 0.621171 0.000000
C310  C     C_R   0.436947 0.450062 0.597373 0.000000
N78   N     N_R   0.441364 0.475123 0.542663 0.000000
C311  C     C_R   0.411743 0.438417 0.532654 0.000000
C312  C     C_R   0.403587 0.441285 0.484286 0.000000
S39   S     S_3+2 0.489371 0.477735 0.629876 0.000000
O115  O     O_2   0.464080 0.461794 0.687202 0.000000
O116  O     O_2   0.480196 0.538297 0.604505 0.000000
O117  O     O_3   0.586398 0.469965 0.628105 0.000000
H267  H     H_    0.404054 0.365606 0.430504 0.000000
H268  H     H_    0.384754 0.436707 0.398521 0.000000
H269  H     H_    0.307194 0.390593 0.428776 0.000000
H270  H     H_    0.337214 0.316902 0.529268 0.000000
H271  H     H_    0.349350 0.315071 0.614695 0.000000
H272  H     H_    0.419635 0.476337 0.448231 0.000000
H273  H     H_    0.603826 0.499588 0.593526 0.000000
C313  C     C_3   0.735878 0.744336 0.450902 0.000000
C314  C     C_R   0.696072 0.694820 0.464412 0.000000
C315  C     C_R   0.633566 0.678438 0.500341 0.000000
C316  C     C_R   0.592988 0.634694 0.508450 0.000000
C317  C     C_R   0.621129 0.606597 0.483568 0.000000
N79   N     N_R   0.592029 0.563899 0.483721 0.000000
C318  C     C_R   0.657882 0.539758 0.475003 0.000000
N80   N     N_R   0.725048 0.568078 0.467095 0.000000
C319  C     C_R   0.695310 0.612271 0.466825 0.000000
C320  C     C_R   0.729048 0.660266 0.448174 0.000000
S40   S     S_3+2 0.651366 0.478058 0.474239 0.000000
O118  O     O_2   0.567174 0.469104 0.471479 0.000000
O119  O     O_2   0.667948 0.429067 0.527396 0.000000
O120  O     O_3   0.694429 0.467740 0.424563 0.000000
H274  H     H_    0.704734 0.778900 0.421370 0.000000
H275  H     H_    0.793758 0.743877 0.433880 0.000000
H276  H     H_    0.740109 0.747425 0.487035 0.000000
H277  H     H_    0.614002 0.700792 0.520194 0.000000
H278  H     H_    0.544283 0.621996 0.535720 0.000000
H279  H     H_    0.779643 0.670211 0.422696 0.000000
H280  H     H_    0.654488 0.451706 0.414332 0.000000
C321  C     C_3   0.093259 0.467434 0.793492 0.000000
C322  C     C_R   0.127992 0.440515 0.764186 0.000000
C323  C     C_R   0.205946 0.434961 0.762574 0.000000
C324  C     C_R   0.241241 0.413971 0.732752 0.000000
C325  C     C_R   0.197236 0.388992 0.714404 0.000000
N81   N     N_R   0.223126 0.361851 0.689450 0.000000
C326  C     C_R   0.156324 0.358916 0.666842 0.000000
N82   N     N_R   0.089849 0.374148 0.685954 0.000000
C327  C     C_R   0.119816 0.395089 0.714048 0.000000
C328  C     C_R   0.084135 0.423339 0.737108 0.000000
S41   S     S_3+2 0.161085 0.372294 0.599093 0.000000
O121  O     O_2   0.222562 0.413748 0.568087 0.000000
O122  O     O_2   0.091040 0.404253 0.569981 0.000000
O123  O     O_3   0.177892 0.324358 0.579863 0.000000
H281  H     H_    0.136984 0.476568 0.813667 0.000000
H282  H     H_    0.052335 0.440219 0.824449 0.000000
H283  H     H_    0.066330 0.505407 0.765093 0.000000
H284  H     H_    0.239535 0.447990 0.783970 0.000000
H285  H     H_    0.301591 0.416879 0.724860 0.000000
H286  H     H_    0.024506 0.432122 0.734505 0.000000
H287  H     H_    0.185246 0.344678 0.540860 0.000000
C329  C     C_3   0.117885 0.970516 0.955157 0.000000
C330  C     C_R   0.140858 0.998161 0.983582 0.000000
C331  C     C_R   0.211082 0.986492 0.004951 0.000000
C332  C     C_R   0.241881 0.019767 0.020356 0.000000
C333  C     C_R   0.199638 0.062780 0.015703 0.000000
N83   N     N_R   0.219317 0.098111 0.030704 0.000000
C334  C     C_R   0.147452 0.118367 0.036855 0.000000
N84   N     N_R   0.089597 0.103696 0.016103 0.000000
C335  C     C_R   0.125337 0.068104 0.004215 0.000000
C336  C     C_R   0.095031 0.037749 0.985525 0.000000
S42   S     S_3+2 0.119981 0.139713 0.085754 0.000000
O124  O     O_2   0.176751 0.138158 0.123966 0.000000
O125  O     O_2   0.073761 0.092490 0.127119 0.000000
O126  O     O_3   0.059509 0.192362 0.074996 0.000000
H288  H     H_    0.118606 0.001047 0.913519 0.000000
H289  H     H_    0.060795 0.953025 0.970158 0.000000
H290  H     H_    0.160373 0.939414 0.958328 0.000000
H291  H     H_    0.242398 0.952207 0.007707 0.000000
H292  H     H_    0.294548 0.010191 0.039157 0.000000
H293  H     H_    0.039050 0.045634 0.970927 0.000000
H294  H     H_    0.093002 0.220661 0.071984 0.000000
C337  C     C_3   0.906647 0.599034 0.696759 0.000000
C338  C     C_R   0.923721 0.650572 0.651839 0.000000
C339  C     C_R   0.979284 0.654592 0.613970 0.000000
C340  C     C_R   0.981886 0.700426 0.566500 0.000000
C341  C     C_R   0.939271 0.742321 0.564012 0.000000
N85   N     N_R   0.932797 0.789805 0.522497 0.000000
C342  C     C_R   0.905545 0.820373 0.545766 0.000000
N86   N     N_R   0.890565 0.790622 0.600898 0.000000
C343  C     C_R   0.906569 0.741716 0.607421 0.000000
C344  C     C_R   0.885662 0.694863 0.648545 0.000000
S43   S     S_3+2 0.901243 0.892108 0.506532 0.000000
O127  O     O_2   0.904296 0.913273 0.446638 0.000000
O128  O     O_2   0.974730 0.915906 0.511005 0.000000
O129  O     O_3   0.829135 0.928421 0.517286 0.000000
H295  H     H_    0.866116 0.577822 0.685999 0.000000
H296  H     H_    0.879808 0.606284 0.728466 0.000000
H297  H     H_    0.961558 0.576979 0.707942 0.000000
H298  H     H_    0.010547 0.619659 0.618043 0.000000
H299  H     H_    0.016215 0.703450 0.533209 0.000000
H300  H     H_    0.842221 0.693219 0.677034 0.000000
H301  H     H_    0.809671 0.951476 0.481759 0.000000
C345  C     C_3   0.131539 0.373398 0.919348 0.000000
C346  C     C_R   0.086992 0.324781 0.935548 0.000000
C347  C     C_R   0.121341 0.275670 0.949797 0.000000
C348  C     C_R   0.077233 0.232128 0.961531 0.000000
C349  C     C_R   0.999891 0.235971 0.970174 0.000000
N87   N     N_R   0.945517 0.197950 0.990310 0.000000
C350  C     C_R   0.878891 0.229035 0.982201 0.000000
N88   N     N_R   0.892169 0.283114 0.952372 0.000000
C351  C     C_R   0.967857 0.285255 0.950244 0.000000
C352  C     C_R   0.010496 0.330193 0.929106 0.000000
S44   S     S_3+2 0.800123 0.209236 0.030963 0.000000
O130  O     O_2   0.825361 0.215660 0.077372 0.000000
O131  O     O_2   0.779446 0.150147 0.059916 0.000000
O132  O     O_3   0.715883 0.244516 0.018370 0.000000
H302  H     H_    0.094107 0.405338 0.920324 0.000000
H303  H     H_    0.155872 0.387043 0.878885 0.000000
H304  H     H_    0.177533 0.364832 0.946308 0.000000
H305  H     H_    0.182360 0.271988 0.949445 0.000000
H306  H     H_    0.103713 0.198149 0.961390 0.000000
H307  H     H_    0.987268 0.369006 0.906766 0.000000
H308  H     H_    0.706297 0.250905 0.049115 0.000000
C353  C     C_3   0.714697 0.522569 0.660839 0.000000
C354  C     C_R   0.760336 0.483999 0.704661 0.000000
C355  C     C_R   0.736620 0.474596 0.754913 0.000000
C356  C     C_R   0.771550 0.435514 0.797984 0.000000
C357  C     C_R   0.829592 0.406177 0.789634 0.000000
N89   N     N_R   0.874004 0.370065 0.826641 0.000000
C358  C     C_R   0.925399 0.355428 0.796535 0.000000
N90   N     N_R   0.913037 0.381154 0.743015 0.000000
C359  C     C_R   0.854140 0.414788 0.740067 0.000000
C360  C     C_R   0.820534 0.454723 0.696270 0.000000
S45   S     S_3+2 0.997574 0.304344 0.821928 0.000000
O133  O     O_2   0.069151 0.321039 0.837210 0.000000
O134  O     O_2   0.031338 0.293583 0.777569 0.000000
O135  O     O_3   0.975879 0.242135 0.871042 0.000000
H309  H     H_    0.723483 0.514119 0.627279 0.000000
H310  H     H_    0.730791 0.563583 0.650528 0.000000
H311  H     H_    0.653497 0.517423 0.673908 0.000000
H312  H     H_    0.690744 0.498304 0.760477 0.000000
H313  H     H_    0.757084 0.431822 0.836288 0.000000
H314  H     H_    0.837095 0.461575 0.657099 0.000000
H315  H     H_    0.925143 0.247420 0.884439 0.000000
C361  C     C_3   0.649222 0.025940 0.969393 0.000000
C362  C     C_R   0.717191 0.056240 0.961893 0.000000
C363  C     C_R   0.737628 0.065851 0.001817 0.000000
C364  C     C_R   0.808381 0.085496 0.998701 0.000000
C365  C     C_R   0.855191 0.095599 0.955429 0.000000
N91   N     N_R   0.927340 0.111653 0.946780 0.000000
C366  C     C_R   0.942408 0.121346 0.894730 0.000000
N92   N     N_R   0.881401 0.111047 0.872367 0.000000
C367  C     C_R   0.830023 0.092891 0.913377 0.000000
C368  C     C_R   0.761759 0.072194 0.916139 0.000000
S46   S     S_3+2 0.033917 0.142146 0.861068 0.000000
O136  O     O_2   0.081404 0.095015 0.862728 0.000000
O137  O     O_2   0.084461 0.160524 0.890312 0.000000
O138  O     O_3   0.042855 0.189837 0.796414 0.000000
H316  H     H_    0.647266 0.991601 0.009913 0.000000
H317  H     H_    0.652118 0.011318 0.940080 0.000000
H318  H     H_    0.599523 0.052789 0.963125 0.000000
H319  H     H_    0.700841 0.054568 0.036953 0.000000
H320  H     H_    0.826411 0.091317 0.029824 0.000000
H321  H     H_    0.746719 0.065341 0.885074 0.000000
H322  H     H_    0.053702 0.168666 0.777831 0.000000
C369  C     C_3   0.030931 0.290457 0.537149 0.000000
C370  C     C_R   0.001390 0.262415 0.593353 0.000000
C371  C     C_R   0.982773 0.208968 0.616228 0.000000
C372  C     C_R   0.953871 0.182117 0.668098 0.000000
C373  C     C_R   0.941483 0.210157 0.695559 0.000000
N93   N     N_R   0.903097 0.194642 0.742625 0.000000
C374  C     C_R   0.901979 0.240615 0.746971 0.000000
N94   N     N_R   0.941083 0.283426 0.705936 0.000000
C375  C     C_R   0.963121 0.262285 0.673920 0.000000
C376  C     C_R   0.993616 0.289066 0.622947 0.000000
S47   S     S_3+2 0.834153 0.246252 0.791720 0.000000
O139  O     O_2   0.756946 0.232680 0.781104 0.000000
O140  O     O_2   0.816885 0.303398 0.779085 0.000000
O141  O     O_3   0.834925 0.208504 0.858507 0.000000
H323  H     H_    0.085187 0.271095 0.532838 0.000000
H324  H     H_    0.041013 0.333006 0.524565 0.000000
H325  H     H_    0.988782 0.288006 0.511566 0.000000
H326  H     H_    0.990903 0.188146 0.593274 0.000000
H327  H     H_    0.942419 0.140432 0.686026 0.000000
H328  H     H_    0.005978 0.330601 0.605710 0.000000
H329  H     H_    0.783221 0.193451 0.868585 0.000000
C377  C     C_3   0.091960 0.975779 0.426256 0.000000
C378  C     C_R   0.124659 0.920529 0.448753 0.000000
C379  C     C_R   0.200133 0.912436 0.462144 0.000000
C380  C     C_R   0.235133 0.863334 0.477421 0.000000
C381  C     C_R   0.192288 0.822865 0.480645 0.000000
N95   N     N_R   0.219031 0.775566 0.487044 0.000000
C382  C     C_R   0.155465 0.753933 0.478731 0.000000
N96   N     N_R   0.091012 0.787459 0.465707 0.000000
C383  C     C_R   0.117713 0.830102 0.467980 0.000000
C384  C     C_R   0.082621 0.878689 0.452322 0.000000
S48   S     S_3+2 0.159966 0.689142 0.483529 0.000000
O142  O     O_2   0.237221 0.672861 0.467558 0.000000
O143  O     O_2   0.111063 0.682110 0.446679 0.000000
O144  O     O_3   0.129911 0.637350 0.541017 0.000000
H330  H     H_    0.090129 0.989251 0.456568 0.000000
H331  H     H_    0.033751 0.977219 0.413136 0.000000
H332  H     H_    0.128540 0.002997 0.391686 0.000000
H333  H     H_    0.232830 0.945442 0.458001 0.000000
H334  H     H_    0.295006 0.857680 0.484865 0.000000
H335  H     H_    0.027194 0.885044 0.437198 0.000000
H336  H     H_    0.077359 0.632872 0.534501 0.000000

loop_
_geom_bond_atom_site_label_1
_geom_bond_atom_site_label_2
_geom_bond_distance
_geom_bond_site_symmetry_2
_ccdc_geom_bond_type
Zn1   N2    2.143 .      S
Zn1   N5    2.147 .      S
Zn1   N85   2.033 .      S
Zn1   N96   2.150 1_655  S
Zn2   N1    2.153 .      S
Zn2   N3    2.167 .      S
Zn2   N65   2.108 .      S
Zn2   N80   2.181 .      S
Zn3   N6    2.127 .      S
Zn3   N7    2.115 .      S
Zn3   N68   2.121 .      S
Zn3   N73   2.127 .      S
Zn4   N8    2.152 .      S
Zn4   N84   2.093 1_655  S
Zn4   N87   2.124 1_554  S
Zn4   N91   2.123 1_554  S
Zn5   N4    2.171 .      S
Zn5   N82   2.198 1_655  S
Zn5   N90   2.108 .      S
Zn5   N94   2.168 .      S
Zn6   N9    2.115 .      S
Zn6   N12   2.181 1_554  S
Zn6   N14   2.202 .      S
Zn6   N16   2.157 1_554  S
Zn7   N10   2.089 .      S
Zn7   N18   2.104 1_554  S
Zn7   N20   2.136 .      S
Zn7   N22   2.114 1_554  S
Zn8   N11   2.206 .      S
Zn8   N24   2.085 .      S
Zn8   N25   2.190 .      S
Zn8   N27   2.150 .      S
Zn9   N13   2.050 .      S
Zn9   N29   2.196 .      S
Zn9   N32   2.180 .      S
Zn9   N33   2.233 .      S
Zn10  N15   2.168 .      S
Zn10  N35   2.152 .      S
Zn10  N37   2.135 .      S
Zn10  N39   2.112 .      S
Zn11  N21   2.049 .      S
Zn11  N26   2.257 1_655  S
Zn11  N42   2.180 .      S
Zn11  N43   2.199 .      S
Zn12  N28   2.120 .      S
Zn12  N46   2.168 .      S
Zn12  N48   2.131 .      S
Zn12  N50   2.159 .      S
Zn13  N17   2.065 .      S
Zn13  N36   2.150 1_655  S
Zn13  N52   2.135 .      S
Zn13  N54   2.116 .      S
Zn14  N23   2.058 .      S
Zn14  N38   2.108 .      S
Zn14  N56   2.177 .      S
Zn14  N57   2.141 .      S
Zn15  N40   2.126 .      S
Zn15  N60   2.217 .      S
Zn15  N61   2.041 .      S
Zn15  N64   2.107 .      S
Zn16  N19   2.169 .      S
Zn16  N30   2.207 1_655  S
Zn16  N66   2.219 .      S
Zn16  N67   2.245 .      S
Zn17  N31   2.214 .      S
Zn17  N70   2.113 .      S
Zn17  N72   2.148 .      S
Zn17  N74   2.062 .      S
Zn18  N34   2.164 .      S
Zn18  N75   2.137 .      S
Zn18  N78   2.118 .      S
Zn18  N79   2.142 .      S
Zn19  N45   2.085 .      S
Zn19  N62   2.156 .      S
Zn19  N77   2.186 .      S
Zn19  N81   2.186 .      S
Zn20  N47   2.089 .      S
Zn20  N63   2.148 1_554  S
Zn20  N71   2.200 .      S
Zn20  N83   2.134 .      S
Zn21  N41   2.169 .      S
Zn21  N53   2.187 .      S
Zn21  N58   2.173 .      S
Zn21  N86   2.161 .      S
Zn22  N44   2.105 .      S
Zn22  N49   2.113 .      S
Zn22  N88   2.048 .      S
Zn22  N89   2.097 .      S
Zn23  N51   2.090 .      S
Zn23  N59   2.211 .      S
Zn23  N92   2.153 .      S
Zn23  N93   2.114 .      S
Zn24  N55   2.153 .      S
Zn24  N69   2.256 .      S
Zn24  N76   2.134 .      S
Zn24  N95   2.078 .      S
C1    C2    1.486 .      S
C1    H1    1.099 .      S
C1    H2    1.074 .      S
C1    H3    1.104 .      S
C3    H4    1.075 .      S
C4    H5    1.067 .      S
C6    S1    1.787 .      S
C8    H6    1.078 .      S
S1    O3    1.695 .      S
O3    H7    0.990 .      S
C9    C10   1.489 .      S
C9    H8    1.109 .      S
C9    H9    1.107 .      S
C9    H10   1.108 .      S
C11   H11   1.081 .      S
C12   H12   1.077 .      S
C14   S2    1.765 .      S
C16   H13   1.070 .      S
S2    O6    1.712 .      S
O6    H14   0.985 1_655  S
H14   O6    0.985 1_455  S
C17   C18   1.494 .      S
C17   H15   1.105 .      S
C17   H16   1.106 1_565  S
C17   H17   1.109 1_565  S
C19   H18   1.072 .      S
C20   H19   1.061 .      S
C22   S3    1.798 1_655  S
C24   H20   1.060 .      S
S3    C22   1.798 1_455  S
S3    O9    1.700 .      S
O9    H21   0.987 .      S
H16   C17   1.106 1_545  S
H17   C17   1.109 1_545  S
C25   C26   1.490 .      S
C25   H22   1.109 .      S
C25   H23   1.107 .      S
C25   H24   1.109 .      S
C27   H25   1.081 .      S
C28   H26   1.064 1_545  S
C30   S4    1.789 1_545  S
C32   H27   1.068 .      S
S4    C30   1.789 1_565  S
S4    O12   1.713 .      S
O12   H28   0.989 .      S
H26   C28   1.064 1_565  S
C33   C34   1.497 1_556  S
C33   H29   1.095 .      S
C33   H30   1.096 .      S
C33   H31   1.105 1_556  S
C34   C33   1.497 1_554  S
C35   H32   1.069 .      S
C36   H33   1.077 .      S
C38   S5    1.850 .      S
C40   H34   1.064 .      S
S5    O15   1.712 .      S
O15   H35   0.990 .      S
H31   C33   1.105 1_554  S
C41   C42   1.490 .      S
C41   H36   1.109 .      S
C41   H37   1.108 .      S
C41   H38   1.109 .      S
C43   H39   1.077 .      S
C44   H40   1.078 .      S
C46   S6    1.754 .      S
N12   Zn6   2.181 1_556  S
C48   H41   1.079 .      S
S6    O18   1.695 .      S
O18   H42   0.986 .      S
C49   C50   1.488 .      S
C49   H43   1.108 .      S
C49   H44   1.105 .      S
C49   H45   1.095 .      S
C51   H46   1.074 .      S
C52   H47   1.067 .      S
C54   S7    1.781 .      S
C56   H48   1.019 .      S
S7    O21   1.709 .      S
O21   H49   0.990 .      S
C57   C58   1.494 .      S
C57   H50   1.102 .      S
C57   H51   1.098 .      S
C57   H52   1.093 .      S
C59   H53   1.074 .      S
C60   H54   1.067 .      S
C62   S8    1.772 .      S
N16   Zn6   2.157 1_556  S
C64   H55   1.069 .      S
S8    O24   1.688 .      S
O24   H56   0.983 .      S
C65   C66   1.469 .      S
C65   H57   1.091 .      S
C65   H58   1.092 .      S
C65   H59   1.106 .      S
C67   H60   1.079 .      S
C68   H61   1.058 .      S
C70   S9    1.798 .      S
N18   Zn7   2.104 1_556  S
C72   H62   1.048 1_456  S
S9    O27   1.714 .      S
O27   H63   0.987 .      S
H62   C72   1.048 1_654  S
C73   C74   1.487 1_455  S
C73   H64   1.109 .      S
C73   H65   1.109 1_455  S
C73   H66   1.109 .      S
C74   C73   1.487 1_655  S
C75   H67   1.079 .      S
C76   H68   1.072 .      S
C78   S10   1.814 .      S
C80   H69   1.070 .      S
S10   O30   1.709 .      S
O30   H70   0.981 1_554  S
H65   C73   1.109 1_655  S
H70   O30   0.981 1_556  S
C81   C82   1.445 .      S
C81   H71   1.107 .      S
C81   H72   1.097 .      S
C81   H73   1.089 .      S
C83   H74   1.081 .      S
C84   H75   1.060 .      S
C86   S11   1.749 1_655  S
N22   Zn7   2.114 1_556  S
C88   H76   1.068 .      S
S11   C86   1.749 1_455  S
S11   O33   1.695 .      S
O33   H77   0.988 .      S
C89   C90   1.468 .      S
C89   H78   1.095 .      S
C89   H79   1.105 .      S
C89   H80   1.099 .      S
C91   H81   1.079 .      S
C92   H82   1.074 .      S
C94   S12   1.726 .      S
C96   H83   1.080 .      S
S12   O36   1.678 .      S
O36   H84   0.981 .      S
C97   C98   1.487 .      S
C97   H85   1.108 .      S
C97   H86   1.106 .      S
C97   H87   1.109 .      S
C99   H88   1.081 .      S
C100  H89   1.078 1_556  S
C102  S13   1.825 .      S
N26   Zn11  2.257 1_455  S
C104  H90   1.044 .      S
S13   O39   1.709 .      S
O39   H91   0.990 .      S
H89   C100  1.078 1_554  S
C105  C106  1.491 .      S
C105  H92   1.108 .      S
C105  H93   1.108 .      S
C105  H94   1.107 .      S
C107  H95   1.081 .      S
C108  H96   1.053 .      S
C110  S14   1.796 .      S
C112  H97   1.066 .      S
S14   O42   1.711 .      S
O42   H98   0.990 .      S
C113  C114  1.478 .      S
C113  H99   1.106 .      S
C113  H100  1.103 .      S
C113  H101  1.101 .      S
C115  H102  1.079 .      S
C116  H103  1.067 .      S
C118  S15   1.803 .      S
N30   Zn16  2.207 1_455  S
C120  H104  1.060 .      S
S15   O45   1.712 .      S
O45   H105  0.986 .      S
C121  C122  1.488 .      S
C121  H106  1.107 .      S
C121  H107  1.107 .      S
C121  H108  1.107 1_554  S
C123  H109  1.068 .      S
C124  H110  1.063 .      S
C126  S16   1.686 .      S
C128  H111  1.073 .      S
S16   O48   1.681 .      S
O48   H112  0.992 .      S
H108  C121  1.107 1_556  S
C129  C130  1.480 .      S
C129  H113  1.103 .      S
C129  H114  1.104 .      S
C129  H115  1.109 .      S
C131  H116  1.064 .      S
C132  H117  1.053 .      S
C134  S17   1.793 .      S
C136  H118  1.060 .      S
S17   O51   1.713 .      S
O51   H119  0.990 .      S
C137  C138  1.484 .      S
C137  H120  1.103 .      S
C137  H121  1.109 .      S
C137  H122  1.106 .      S
C139  H123  1.081 .      S
C140  H124  1.059 .      S
C142  S18   1.786 .      S
N36   Zn13  2.150 1_455  S
C144  H125  1.062 .      S
S18   O54   1.716 .      S
O54   H126  0.990 .      S
C145  C146  1.488 .      S
C145  H127  1.109 .      S
C145  H128  1.108 .      S
C145  H129  1.109 .      S
C147  H130  1.081 .      S
C148  H131  1.047 .      S
C150  S19   1.811 .      S
C152  H132  1.061 .      S
S19   O57   1.710 .      S
O57   H133  0.981 .      S
C153  C154  1.487 .      S
C153  H134  1.108 .      S
C153  H135  1.105 .      S
C153  H136  1.109 .      S
C155  H137  1.080 .      S
C156  H138  1.067 .      S
C158  S20   1.786 .      S
C160  H139  1.061 .      S
S20   O60   1.703 .      S
O60   H140  0.988 .      S
C161  C162  1.478 .      S
C161  H141  1.094 .      S
C161  H142  1.095 .      S
C161  H143  1.095 .      S
C163  H144  1.072 .      S
C164  H145  1.078 .      S
C166  S21   1.757 .      S
C168  H146  1.075 .      S
S21   O63   1.712 .      S
O63   H147  0.985 .      S
C169  C170  1.488 .      S
C169  H148  1.109 .      S
C169  H149  1.106 .      S
C169  H150  1.109 .      S
C171  H151  1.081 .      S
C172  H152  1.076 .      S
C174  S22   1.732 .      S
C176  H153  1.079 .      S
S22   O66   1.698 .      S
O66   H154  0.982 .      S
C177  C178  1.447 .      S
C177  H155  1.107 .      S
C177  H156  1.091 .      S
C177  H157  1.104 .      S
C179  H158  1.081 .      S
C180  H159  1.070 .      S
C182  S23   1.772 .      S
C184  H160  1.077 .      S
S23   O69   1.701 .      S
O69   H161  0.985 .      S
C185  C186  1.489 .      S
C185  H162  1.108 .      S
C185  H163  1.107 .      S
C185  H164  1.108 .      S
C187  H165  1.081 .      S
C188  H166  1.079 .      S
C190  S24   1.748 .      S
C192  H167  1.073 .      S
S24   O72   1.707 .      S
O72   H168  0.990 .      S
C193  C194  1.488 .      S
C193  H169  1.109 .      S
C193  H170  1.107 .      S
C193  H171  1.108 .      S
C195  H172  1.081 .      S
C196  H173  1.067 .      S
C198  S25   1.763 .      S
C200  H174  1.076 .      S
S25   O75   1.696 .      S
O75   H175  0.976 .      S
C201  C202  1.469 .      S
C201  H176  1.107 .      S
C201  H177  1.106 1_545  S
C201  H178  1.109 .      S
C203  H179  1.079 .      S
C204  H180  1.071 .      S
C206  S26   1.749 1_545  S
C208  H181  1.070 .      S
S26   C206  1.749 1_565  S
S26   O78   1.697 1_565  S
O78   S26   1.697 1_545  S
O78   H182  0.989 1_545  S
H177  C201  1.106 1_565  S
H182  O78   0.989 1_565  S
C209  C210  1.487 1_545  S
C209  H183  1.109 1_655  S
C209  H184  1.104 1_655  S
C209  H185  1.109 .      S
C210  C209  1.487 1_565  S
C211  H186  1.079 .      S
C212  H187  1.053 .      S
C214  S27   1.760 .      S
C216  H188  1.064 .      S
S27   O81   1.677 1_655  S
O81   S27   1.677 1_455  S
O81   H189  0.984 .      S
H183  C209  1.109 1_455  S
H184  C209  1.104 1_455  S
C217  C218  1.477 .      S
C217  H190  1.085 .      S
C217  H191  1.099 .      S
C217  H192  1.104 .      S
C219  H193  1.065 .      S
C220  H194  1.061 .      S
C222  S28   1.769 .      S
C224  H195  1.024 .      S
S28   O84   1.712 .      S
O84   H196  0.990 .      S
C225  C226  1.488 .      S
C225  H197  1.108 .      S
C225  H198  1.107 .      S
C225  H199  1.107 1_565  S
C227  H200  1.081 .      S
C228  H201  1.065 .      S
C230  S29   1.805 .      S
C232  H202  1.060 .      S
S29   O87   1.712 .      S
O87   H203  0.990 .      S
H199  C225  1.107 1_545  S
C233  C234  1.490 .      S
C233  H204  1.108 .      S
C233  H205  1.108 .      S
C233  H206  1.109 .      S
C235  H207  1.075 .      S
C236  H208  1.067 .      S
C238  S30   1.797 .      S
C240  H209  1.066 .      S
S30   O90   1.713 1_545  S
O90   S30   1.713 1_565  S
O90   H210  0.987 .      S
C241  C242  1.456 .      S
C241  H211  1.105 .      S
C241  H212  1.105 .      S
C241  H213  1.103 .      S
C243  H214  1.075 .      S
C244  H215  1.072 .      S
C246  S31   1.777 .      S
C248  H216  1.060 .      S
S31   O93   1.700 .      S
O93   H217  0.987 .      S
C249  C250  1.427 .      S
C249  H218  1.107 .      S
C249  H219  1.098 1_556  S
C249  H220  1.093 .      S
C251  H221  1.076 .      S
C252  H222  1.039 .      S
N63   Zn20  2.148 1_556  S
C254  S32   1.787 .      S
C256  H223  1.065 .      S
S32   O96   1.709 .      S
O96   H224  0.990 .      S
H219  C249  1.098 1_554  S
C257  C258  1.489 .      S
C257  H225  1.109 .      S
C257  H226  1.107 .      S
C257  H227  1.109 .      S
C259  H228  1.081 .      S
C260  H229  1.072 .      S
C262  S33   1.752 .      S
C264  H230  1.051 .      S
S33   O99   1.692 .      S
O99   H231  0.990 .      S
C265  C266  1.484 .      S
C265  H232  1.106 .      S
C265  H233  1.107 .      S
C265  H234  1.106 .      S
C267  H235  1.069 .      S
C268  H236  1.074 .      S
C270  S34   1.748 1_655  S
C272  H237  1.074 .      S
S34   C270  1.748 1_455  S
S34   O102  1.712 .      S
O102  H238  0.988 .      S
C273  C274  1.481 .      S
C273  H239  1.096 .      S
C273  H240  1.108 .      S
C273  H241  1.107 .      S
C275  H242  1.069 .      S
C276  H243  1.035 .      S
C278  S35   1.792 .      S
C280  H244  1.063 .      S
S35   O105  1.704 .      S
O105  H245  0.988 .      S
C281  C282  1.486 1_565  S
C281  H246  1.109 1_565  S
C281  H247  1.108 .      S
C281  H248  1.108 1_565  S
C282  C281  1.486 1_545  S
C283  H249  1.080 .      S
C284  H250  1.050 .      S
C286  S36   1.794 .      S
C288  H251  1.068 .      S
S36   O108  1.693 .      S
O108  H252  0.987 .      S
H246  C281  1.109 1_545  S
H248  C281  1.108 1_545  S
C289  C290  1.489 .      S
C289  H253  1.109 .      S
C289  H254  1.109 .      S
C289  H255  1.109 .      S
C291  H256  1.081 .      S
C292  H257  1.055 .      S
C294  S37   1.757 .      S
C296  H258  1.071 .      S
S37   O111  1.705 .      S
O111  H259  0.982 .      S
C297  C298  1.478 .      S
C297  H260  1.101 .      S
C297  H261  1.102 .      S
C297  H262  1.095 .      S
C299  H263  1.080 .      S
C300  H264  1.053 .      S
C302  S38   1.699 .      S
C304  H265  1.079 .      S
S38   O114  1.687 .      S
O114  H266  0.988 .      S
C305  C306  1.489 .      S
C305  H267  1.109 .      S
C305  H268  1.108 .      S
C305  H269  1.109 .      S
C307  H270  1.081 .      S
C308  H271  1.069 .      S
C310  S39   1.803 .      S
C312  H272  1.073 .      S
S39   O117  1.711 .      S
O117  H273  0.989 .      S
C313  C314  1.473 .      S
C313  H274  1.098 .      S
C313  H275  1.101 .      S
C313  H276  1.095 .      S
C315  H277  1.075 .      S
C316  H278  1.071 .      S
C318  S40   1.782 .      S
C320  H279  1.071 .      S
S40   O120  1.716 .      S
O120  H280  0.990 .      S
C321  C322  1.478 .      S
C321  H281  1.107 .      S
C321  H282  1.104 .      S
C321  H283  1.106 .      S
C323  H284  1.077 .      S
C324  H285  1.069 .      S
C326  S41   1.798 .      S
N82   Zn5   2.198 1_455  S
C328  H286  1.066 .      S
S41   O123  1.713 .      S
O123  H287  0.990 .      S
C329  C330  1.468 .      S
C329  H288  1.094 1_565  S
C329  H289  1.107 .      S
C329  H290  1.106 .      S
C331  H291  1.071 .      S
C332  H292  1.063 .      S
C334  S42   1.815 .      S
N84   Zn4   2.093 1_455  S
C336  H293  1.069 .      S
S42   O126  1.712 .      S
O126  H294  0.990 .      S
H288  C329  1.094 1_545  S
C337  C338  1.447 .      S
C337  H295  1.106 .      S
C337  H296  1.102 .      S
C337  H297  1.106 .      S
C339  H298  1.074 1_655  S
C340  H299  1.067 1_655  S
C342  S43   1.804 .      S
C344  H300  1.068 .      S
S43   O129  1.705 .      S
O129  H301  0.990 .      S
H298  C339  1.074 1_455  S
H299  C340  1.067 1_455  S
C345  C346  1.481 .      S
C345  H302  1.109 .      S
C345  H303  1.099 .      S
C345  H304  1.097 .      S
C347  H305  1.073 .      S
C348  H306  1.057 .      S
N87   Zn4   2.124 1_556  S
C350  S44   1.806 1_556  S
C352  H307  1.057 1_455  S
S44   C350  1.806 1_554  S
S44   O132  1.709 .      S
O132  H308  0.989 .      S
H307  C352  1.057 1_655  S
C353  C354  1.474 .      S
C353  H309  1.104 .      S
C353  H310  1.108 .      S
C353  H311  1.108 .      S
C355  H312  1.081 .      S
C356  H313  1.071 .      S
C358  S45   1.789 .      S
C360  H314  1.071 .      S
S45   O135  1.699 .      S
O135  H315  0.982 .      S
C361  C362  1.452 .      S
C361  H316  1.108 1_546  S
C361  H317  1.105 .      S
C361  H318  1.099 .      S
C363  H319  1.080 .      S
C364  H320  1.059 1_556  S
N91   Zn4   2.123 1_556  S
C366  S46   1.792 1_655  S
C368  H321  1.057 .      S
S46   C366  1.792 1_455  S
S46   O138  1.703 .      S
O138  H322  0.987 .      S
H316  C361  1.108 1_564  S
H320  C364  1.059 1_554  S
C369  C370  1.489 .      S
C369  H323  1.109 .      S
C369  H324  1.108 .      S
C369  H325  1.108 1_455  S
C371  H326  1.081 .      S
C372  H327  1.069 .      S
C374  S47   1.756 .      S
C376  H328  1.070 1_655  S
S47   O141  1.698 .      S
O141  H329  0.989 .      S
H325  C369  1.108 1_655  S
H328  C376  1.070 1_455  S
C377  C378  1.491 .      S
C377  H330  1.109 .      S
C377  H331  1.108 .      S
C377  H332  1.109 1_565  S
C379  H333  1.081 .      S
C380  H334  1.078 .      S
C382  S48   1.786 .      S
N96   Zn1   2.150 1_455  S
C384  H335  1.067 .      S
S48   O144  1.679 .      S
O144  H336  0.982 .      S
H332  C377  1.109 1_545  S
C2    C3    1.371 .      A
C2    C8    1.389 .      A
C3    C4    1.366 1_455  A
C4    C3    1.366 1_655  A
C4    C5    1.358 .      A
C5    N1    1.345 .      A
C5    C7    1.361 .      A
N1    C6    1.383 .      A
C6    N2    1.409 .      A
N2    C7    1.344 .      A
C7    C8    1.379 1_655  A
C8    C7    1.379 1_455  A
C10   C11   1.382 .      A
C10   C16   1.391 .      A
C11   C12   1.379 .      A
C12   C13   1.366 .      A
C13   N3    1.341 .      A
C13   C15   1.368 .      A
N3    C14   1.400 .      A
C14   N4    1.388 .      A
N4    C15   1.358 .      A
C15   C16   1.377 .      A
C18   C19   1.374 .      A
C18   C24   1.373 .      A
C19   C20   1.386 .      A
C20   C21   1.356 .      A
C21   N5    1.352 .      A
C21   C23   1.356 .      A
N5    C22   1.387 .      A
C22   N6    1.389 .      A
N6    C23   1.335 .      A
C23   C24   1.370 .      A
C26   C27   1.382 .      A
C26   C32   1.388 .      A
C27   C28   1.379 .      A
C28   C29   1.370 .      A
C29   N7    1.347 1_545  A
C29   C31   1.362 .      A
N7    C29   1.347 1_565  A
N7    C30   1.386 1_565  A
C30   N7    1.386 1_545  A
C30   N8    1.399 .      A
N8    C31   1.350 .      A
C31   C32   1.374 .      A
C34   C35   1.390 .      A
C34   C40   1.368 1_554  A
C35   C36   1.376 .      A
C36   C37   1.365 .      A
C37   N9    1.340 .      A
C37   C39   1.356 .      A
N9    C38   1.404 .      A
C38   N10   1.391 .      A
N10   C39   1.329 .      A
C39   C40   1.354 1_554  A
C40   C34   1.368 1_556  A
C40   C39   1.354 1_556  A
C42   C43   1.388 .      A
C42   C48   1.388 .      A
C43   C44   1.382 1_554  A
C44   C43   1.382 1_556  A
C44   C45   1.373 .      A
C45   N11   1.356 .      A
C45   C47   1.373 1_556  A
N11   C46   1.382 .      A
C46   N12   1.406 .      A
N12   C47   1.344 1_556  A
C47   C45   1.373 1_554  A
C47   N12   1.344 1_554  A
C47   C48   1.369 .      A
C50   C51   1.376 .      A
C50   C56   1.369 .      A
C51   C52   1.372 .      A
C52   C53   1.361 .      A
C53   N13   1.323 .      A
C53   C55   1.339 .      A
N13   C54   1.389 .      A
C54   N14   1.396 .      A
N14   C55   1.355 .      A
C55   C56   1.349 .      A
C58   C59   1.387 1_554  A
C58   C64   1.369 .      A
C59   C58   1.387 1_556  A
C59   C60   1.386 .      A
C60   C61   1.352 .      A
C61   N15   1.348 .      A
C61   C63   1.366 .      A
N15   C62   1.379 .      A
C62   N16   1.409 .      A
N16   C63   1.334 .      A
C63   C64   1.367 1_556  A
C64   C63   1.367 1_554  A
C66   C67   1.375 1_554  A
C66   C72   1.369 1_554  A
C67   C66   1.375 1_556  A
C67   C68   1.372 .      A
C68   C69   1.372 1_455  A
C69   C68   1.372 1_655  A
C69   N17   1.341 .      A
C69   C71   1.351 .      A
N17   C70   1.383 .      A
C70   N18   1.393 .      A
N18   C71   1.351 .      A
C71   C72   1.361 1_655  A
C72   C66   1.369 1_556  A
C72   C71   1.361 1_455  A
C74   C75   1.383 1_655  A
C74   C80   1.382 .      A
C75   C74   1.383 1_455  A
C75   C76   1.383 .      A
C76   C77   1.361 1_455  A
C77   C76   1.361 1_655  A
C77   N19   1.345 .      A
C77   C79   1.362 .      A
N19   C78   1.397 .      A
C78   N20   1.401 .      A
N20   C79   1.345 .      A
C79   C80   1.374 .      A
C82   C83   1.375 .      A
C82   C88   1.362 .      A
C83   C84   1.371 .      A
C84   C85   1.379 .      A
C85   N21   1.339 .      A
C85   C87   1.354 .      A
N21   C86   1.376 .      A
C86   N22   1.381 .      A
N22   C87   1.340 .      A
C87   C88   1.343 .      A
C90   C91   1.387 .      A
C90   C96   1.382 .      A
C91   C92   1.374 .      A
C92   C93   1.369 .      A
C93   N23   1.341 .      A
C93   C95   1.367 .      A
N23   C94   1.368 .      A
C94   N24   1.366 .      A
N24   C95   1.344 .      A
C95   C96   1.364 .      A
C98   C99   1.380 .      A
C98   C104  1.384 1_554  A
C99   C100  1.377 1_554  A
C100  C99   1.377 1_556  A
C100  C101  1.369 .      A
C101  N25   1.336 .      A
C101  C103  1.354 .      A
N25   C102  1.402 .      A
C102  N26   1.422 .      A
N26   C103  1.355 .      A
C103  C104  1.361 .      A
C104  C98   1.384 1_556  A
C106  C107  1.374 .      A
C106  C112  1.383 .      A
C107  C108  1.376 .      A
C108  C109  1.365 1_554  A
C109  C108  1.365 1_556  A
C109  N27   1.350 .      A
C109  C111  1.354 .      A
N27   C110  1.400 .      A
C110  N28   1.387 .      A
N28   C111  1.353 .      A
C111  C112  1.380 1_556  A
C112  C111  1.380 1_554  A
C114  C115  1.378 .      A
C114  C120  1.380 .      A
C115  C116  1.380 .      A
C116  C117  1.363 .      A
C117  N29   1.344 .      A
C117  C119  1.356 .      A
N29   C118  1.401 .      A
C118  N30   1.413 .      A
N30   C119  1.337 .      A
C119  C120  1.358 .      A
C122  C123  1.383 .      A
C122  C128  1.370 .      A
C123  C124  1.388 .      A
C124  C125  1.355 .      A
C125  N31   1.358 .      A
C125  C127  1.372 .      A
N31   C126  1.379 .      A
C126  N32   1.381 .      A
N32   C127  1.336 .      A
C127  C128  1.371 .      A
C130  C131  1.370 .      A
C130  C136  1.367 .      A
C131  C132  1.381 .      A
C132  C133  1.359 .      A
C133  N33   1.355 .      A
C133  C135  1.356 .      A
N33   C134  1.412 .      A
C134  N34   1.401 .      A
N34   C135  1.330 .      A
C135  C136  1.359 .      A
C138  C139  1.374 .      A
C138  C144  1.378 .      A
C139  C140  1.374 .      A
C140  C141  1.380 1_545  A
C141  C140  1.380 1_565  A
C141  N35   1.359 .      A
C141  C143  1.368 .      A
N35   C142  1.384 .      A
C142  N36   1.399 .      A
N36   C143  1.347 .      A
C143  C144  1.374 1_565  A
C144  C143  1.374 1_545  A
C146  C147  1.378 .      A
C146  C152  1.382 .      A
C147  C148  1.377 .      A
C148  C149  1.363 .      A
C149  N37   1.351 .      A
C149  C151  1.355 .      A
N37   C150  1.394 .      A
C150  N38   1.393 .      A
N38   C151  1.349 .      A
C151  C152  1.379 .      A
C154  C155  1.386 .      A
C154  C160  1.379 .      A
C155  C156  1.382 1_545  A
C156  C155  1.382 1_565  A
C156  C157  1.375 .      A
C157  N39   1.352 .      A
C157  C159  1.364 1_565  A
N39   C158  1.388 .      A
C158  N40   1.393 1_565  A
N40   C158  1.393 1_545  A
N40   C159  1.347 .      A
C159  C157  1.364 1_545  A
C159  C160  1.366 .      A
C162  C163  1.395 .      A
C162  C168  1.358 .      A
C163  C164  1.388 .      A
C164  C165  1.374 1_455  A
C165  C164  1.374 1_655  A
C165  N41   1.357 .      A
C165  C167  1.364 1_655  A
N41   C166  1.385 .      A
C166  N42   1.402 .      A
N42   C167  1.335 1_655  A
C167  C165  1.364 1_455  A
C167  N42   1.335 1_455  A
C167  C168  1.357 .      A
C170  C171  1.386 .      A
C170  C176  1.385 .      A
C171  C172  1.384 .      A
C172  C173  1.381 1_554  A
C173  C172  1.381 1_556  A
C173  N43   1.367 .      A
C173  C175  1.368 .      A
N43   C174  1.387 .      A
C174  N44   1.377 .      A
N44   C175  1.344 .      A
C175  C176  1.376 1_556  A
C176  C175  1.376 1_554  A
C178  C179  1.366 .      A
C178  C184  1.405 .      A
C179  C180  1.346 .      A
C180  C181  1.364 .      A
C181  N45   1.320 .      A
C181  C183  1.366 .      A
N45   C182  1.387 .      A
C182  N46   1.395 .      A
N46   C183  1.363 .      A
C183  C184  1.373 .      A
C186  C187  1.382 .      A
C186  C192  1.387 1_554  A
C187  C188  1.383 .      A
C188  C189  1.353 .      A
C189  N47   1.333 .      A
C189  C191  1.355 1_554  A
N47   C190  1.383 1_554  A
C190  N47   1.383 1_556  A
C190  N48   1.380 .      A
N48   C191  1.358 .      A
C191  C189  1.355 1_556  A
C191  C192  1.375 .      A
C192  C186  1.387 1_556  A
C194  C195  1.382 .      A
C194  C200  1.388 .      A
C195  C196  1.375 1_554  A
C196  C195  1.375 1_556  A
C196  C197  1.365 .      A
C197  N49   1.343 .      A
C197  C199  1.357 .      A
N49   C198  1.378 .      A
C198  N50   1.390 .      A
N50   C199  1.349 .      A
C199  C200  1.373 1_556  A
C200  C199  1.373 1_554  A
C202  C203  1.383 .      A
C202  C208  1.381 1_545  A
C203  C204  1.375 .      A
C204  C205  1.369 .      A
C205  N51   1.342 .      A
C205  C207  1.363 .      A
N51   C206  1.384 .      A
C206  N52   1.384 1_545  A
N52   C206  1.384 1_565  A
N52   C207  1.347 1_565  A
C207  N52   1.347 1_545  A
C207  C208  1.363 1_545  A
C208  C202  1.381 1_565  A
C208  C207  1.363 1_565  A
C210  C211  1.378 .      A
C210  C216  1.381 .      A
C211  C212  1.385 .      A
C212  C213  1.343 .      A
C213  N53   1.349 .      A
C213  C215  1.359 .      A
N53   C214  1.396 .      A
C214  N54   1.384 .      A
N54   C215  1.341 .      A
C215  C216  1.373 .      A
C218  C219  1.380 .      A
C218  C224  1.339 .      A
C219  C220  1.387 .      A
C220  C221  1.355 .      A
C221  N55   1.342 .      A
C221  C223  1.348 .      A
N55   C222  1.399 .      A
C222  N56   1.397 .      A
N56   C223  1.329 .      A
C223  C224  1.334 .      A
C226  C227  1.374 .      A
C226  C232  1.394 .      A
C227  C228  1.367 .      A
C228  C229  1.375 .      A
C229  N57   1.348 .      A
C229  C231  1.364 .      A
N57   C230  1.388 .      A
C230  N58   1.406 .      A
N58   C231  1.357 .      A
C231  C232  1.376 .      A
C234  C235  1.375 .      A
C234  C240  1.377 .      A
C235  C236  1.378 .      A
C236  C237  1.380 .      A
C237  N59   1.357 .      A
C237  C239  1.368 .      A
N59   C238  1.400 .      A
C238  N60   1.403 .      A
N60   C239  1.356 .      A
C239  C240  1.383 .      A
C242  C243  1.377 .      A
C242  C248  1.372 .      A
C243  C244  1.369 .      A
C244  C245  1.363 .      A
C245  N61   1.327 .      A
C245  C247  1.365 .      A
N61   C246  1.372 .      A
C246  N62   1.399 .      A
N62   C247  1.351 .      A
C247  C248  1.350 .      A
C250  C251  1.356 1_556  A
C250  C256  1.370 1_565  A
C251  C250  1.356 1_554  A
C251  C252  1.349 1_565  A
C252  C251  1.349 1_545  A
C252  C253  1.336 1_554  A
C253  C252  1.336 1_556  A
C253  N63   1.332 .      A
C253  C255  1.350 .      A
N63   C254  1.394 .      A
C254  N64   1.394 .      A
N64   C255  1.322 .      A
C255  C256  1.346 .      A
C256  C250  1.370 1_545  A
C258  C259  1.382 .      A
C258  C264  1.389 1_455  A
C259  C260  1.377 1_455  A
C260  C259  1.377 1_655  A
C260  C261  1.374 .      A
C261  N65   1.343 .      A
C261  C263  1.369 .      A
N65   C262  1.383 .      A
C262  N66   1.390 .      A
N66   C263  1.365 .      A
C263  C264  1.372 .      A
C264  C258  1.389 1_655  A
C266  C267  1.382 .      A
C266  C272  1.368 .      A
C267  C268  1.388 .      A
C268  C269  1.366 .      A
C269  N67   1.361 .      A
C269  C271  1.368 .      A
N67   C270  1.412 .      A
C270  N68   1.377 .      A
N68   C271  1.331 .      A
C271  C272  1.366 .      A
C274  C275  1.365 .      A
C274  C280  1.353 .      A
C275  C276  1.375 .      A
C276  C277  1.365 .      A
C277  N69   1.368 .      A
C277  C279  1.358 .      A
N69   C278  1.402 .      A
C278  N70   1.398 .      A
N70   C279  1.323 .      A
C279  C280  1.366 .      A
C282  C283  1.383 .      A
C282  C288  1.375 1_545  A
C283  C284  1.385 .      A
C284  C285  1.356 .      A
C285  N71   1.354 .      A
C285  C287  1.355 1_545  A
N71   C286  1.399 .      A
C286  N72   1.391 1_545  A
N72   C286  1.391 1_565  A
N72   C287  1.338 .      A
C287  C285  1.355 1_565  A
C287  C288  1.372 .      A
C288  C282  1.375 1_565  A
C290  C291  1.386 .      A
C290  C296  1.385 1_545  A
C291  C292  1.384 .      A
C292  C293  1.374 1_545  A
C293  C292  1.374 1_565  A
C293  N73   1.357 .      A
C293  C295  1.358 .      A
N73   C294  1.381 .      A
C294  N74   1.377 .      A
N74   C295  1.341 .      A
C295  C296  1.376 .      A
C296  C290  1.385 1_565  A
C298  C299  1.368 .      A
C298  C304  1.401 .      A
C299  C300  1.357 .      A
C300  C301  1.368 .      A
C301  N75   1.350 .      A
C301  C303  1.372 .      A
N75   C302  1.375 .      A
C302  N76   1.375 .      A
N76   C303  1.358 .      A
C303  C304  1.384 .      A
C306  C307  1.388 .      A
C306  C312  1.386 .      A
C307  C308  1.383 .      A
C308  C309  1.370 .      A
C309  N77   1.350 .      A
C309  C311  1.366 .      A
N77   C310  1.406 .      A
C310  N78   1.383 .      A
N78   C311  1.348 .      A
C311  C312  1.374 .      A
C314  C315  1.389 .      A
C314  C320  1.371 .      A
C315  C316  1.381 .      A
C316  C317  1.367 .      A
C317  N79   1.343 .      A
C317  C319  1.349 .      A
N79   C318  1.389 .      A
C318  N80   1.407 .      A
N80   C319  1.339 .      A
C319  C320  1.359 .      A
C322  C323  1.373 .      A
C322  C328  1.390 .      A
C323  C324  1.367 .      A
C324  C325  1.364 .      A
C325  N81   1.334 .      A
C325  C327  1.364 .      A
N81   C326  1.407 .      A
C326  N82   1.397 .      A
N82   C327  1.358 .      A
C327  C328  1.376 .      A
C330  C331  1.373 1_556  A
C330  C336  1.377 1_565  A
C331  C330  1.373 1_554  A
C331  C332  1.372 1_565  A
C332  C331  1.372 1_545  A
C332  C333  1.358 .      A
C333  N83   1.341 .      A
C333  C335  1.354 .      A
N83   C334  1.400 .      A
C334  N84   1.391 .      A
N84   C335  1.337 .      A
C335  C336  1.363 1_554  A
C336  C330  1.377 1_545  A
C336  C335  1.363 1_556  A
C338  C339  1.380 .      A
C338  C344  1.367 .      A
C339  C340  1.367 .      A
C340  C341  1.355 .      A
C341  N85   1.316 .      A
C341  C343  1.334 .      A
N85   C342  1.385 .      A
C342  N86   1.410 .      A
N86   C343  1.335 .      A
C343  C344  1.341 .      A
C346  C347  1.378 .      A
C346  C352  1.362 .      A
C347  C348  1.384 .      A
C348  C349  1.375 1_455  A
C349  C348  1.375 1_655  A
C349  N87   1.360 .      A
C349  C351  1.349 .      A
N87   C350  1.398 .      A
C350  N88   1.383 .      A
N88   C351  1.331 .      A
C351  C352  1.364 1_655  A
C352  C351  1.364 1_455  A
C354  C355  1.378 .      A
C354  C360  1.397 .      A
C355  C356  1.369 .      A
C356  C357  1.370 .      A
C357  N89   1.339 .      A
C357  C359  1.370 .      A
N89   C358  1.396 .      A
C358  N90   1.383 .      A
N90   C359  1.356 .      A
C359  C360  1.379 .      A
C362  C363  1.378 1_556  A
C362  C368  1.371 .      A
C363  C362  1.378 1_554  A
C363  C364  1.369 1_554  A
C364  C363  1.369 1_556  A
C364  C365  1.362 .      A
C365  N91   1.336 .      A
C365  C367  1.356 .      A
N91   C366  1.398 .      A
C366  N92   1.400 .      A
N92   C367  1.339 .      A
C367  C368  1.344 .      A
C370  C371  1.387 1_455  A
C370  C376  1.386 1_455  A
C371  C370  1.387 1_655  A
C371  C372  1.384 .      A
C372  C373  1.372 .      A
C373  N93   1.349 .      A
C373  C375  1.372 .      A
N93   C374  1.376 .      A
C374  N94   1.396 .      A
N94   C375  1.352 .      A
C375  C376  1.373 .      A
C376  C370  1.386 1_655  A
C378  C379  1.386 .      A
C378  C384  1.393 .      A
C379  C380  1.378 .      A
C380  C381  1.372 .      A
C381  N95   1.338 .      A
C381  C383  1.365 .      A
N95   C382  1.391 .      A
C382  N96   1.397 .      A
N96   C383  1.358 .      A
C383  C384  1.365 .      A
S1    O1    1.530 .      D
S1    O2    1.516 .      D
S2    O4    1.527 .      D
S2    O5    1.533 1_655  D
O5    S2    1.533 1_455  D
S3    O7    1.535 1_455  D
S3    O8    1.534 .      D
O7    S3    1.535 1_655  D
S4    O10   1.531 .      D
S4    O11   1.527 .      D
S5    O13   1.533 .      D
S5    O14   1.532 .      D
S6    O16   1.520 .      D
S6    O17   1.528 .      D
S7    O19   1.535 .      D
S7    O20   1.535 .      D
S8    O22   1.528 .      D
S8    O23   1.526 .      D
S9    O25   1.533 .      D
S9    O26   1.534 .      D
S10   O28   1.518 .      D
S10   O29   1.516 .      D
S11   O31   1.529 .      D
S11   O32   1.522 1_556  D
O32   S11   1.522 1_554  D
S12   O34   1.528 .      D
S12   O35   1.534 .      D
S13   O37   1.519 .      D
S13   O38   1.521 .      D
S14   O40   1.532 .      D
S14   O41   1.534 .      D
S15   O43   1.534 .      D
S15   O44   1.532 .      D
S16   O46   1.524 .      D
S16   O47   1.533 .      D
S17   O49   1.535 .      D
S17   O50   1.533 .      D
S18   O52   1.526 .      D
S18   O53   1.528 .      D
S19   O55   1.536 .      D
S19   O56   1.518 .      D
S20   O58   1.535 .      D
S20   O59   1.535 1_565  D
O59   S20   1.535 1_545  D
S21   O61   1.523 .      D
S21   O62   1.496 .      D
S22   O64   1.503 .      D
S22   O65   1.532 .      D
S23   O67   1.530 .      D
S23   O68   1.526 .      D
S24   O70   1.534 .      D
S24   O71   1.523 .      D
S25   O73   1.530 .      D
S25   O74   1.521 .      D
S26   O76   1.527 1_655  D
S26   O77   1.529 .      D
O76   S26   1.527 1_455  D
S27   O79   1.509 .      D
S27   O80   1.519 .      D
S28   O82   1.532 .      D
S28   O83   1.523 .      D
S29   O85   1.532 .      D
S29   O86   1.530 .      D
S30   O88   1.534 .      D
S30   O89   1.517 1_545  D
O89   S30   1.517 1_565  D
S31   O91   1.519 .      D
S31   O92   1.527 .      D
S32   O94   1.528 .      D
S32   O95   1.534 .      D
S33   O97   1.521 .      D
S33   O98   1.519 .      D
S34   O100  1.505 .      D
S34   O101  1.516 .      D
S35   O103  1.535 .      D
S35   O104  1.532 .      D
S36   O106  1.536 1_545  D
S36   O107  1.526 .      D
O106  S36   1.536 1_565  D
S37   O109  1.529 .      D
S37   O110  1.532 .      D
S38   O112  1.532 .      D
S38   O113  1.527 .      D
S39   O115  1.528 .      D
S39   O116  1.526 .      D
S40   O118  1.529 .      D
S40   O119  1.535 .      D
S41   O121  1.532 .      D
S41   O122  1.534 .      D
S42   O124  1.521 .      D
S42   O125  1.527 .      D
S43   O127  1.530 .      D
S43   O128  1.530 .      D
S44   O130  1.532 .      D
S44   O131  1.531 .      D
S45   O133  1.530 1_655  D
S45   O134  1.529 1_655  D
O133  S45   1.530 1_455  D
O134  S45   1.529 1_455  D
S46   O136  1.531 .      D
S46   O137  1.533 .      D
S47   O139  1.520 .      D
S47   O140  1.511 .      D
S48   O142  1.527 .      D
S48   O143  1.502 .      D
