data_str_m1_o12014_SEW
_audit_creation_date              2015-10-01T06:38:11-0700
_symmetry_space_group_name_H-M    P1
_symmetry_Int_Tables_number       1
_space_group_crystal_system       triclinic
loop_
_symmetry_equiv_pos_as_xyz
  x,y,z
_cell_length_a                    51.7100170
_cell_length_b                    25.0634695
_cell_length_c                    29.9966048
_cell_angle_alpha                 91.6489314
_cell_angle_beta                  90.1769257
_cell_angle_gamma                 89.7922108
_cell_volume                      38860.0456105

loop_
_atom_site_label
_atom_site_type_symbol
_atom_site_description
_atom_site_fract_x
_atom_site_fract_y
_atom_site_fract_z
_atom_type_partial_charge
Zn1   Zn    Zn3+2 0.715757 0.950133 0.260930 0.000000
Zn2   Zn    Zn3+2 0.601100 0.856941 0.265614 0.000000
Zn3   Zn    Zn3+2 0.119119 0.960942 0.266121 0.000000
Zn4   Zn    Zn3+2 0.533266 0.457388 0.399695 0.000000
Zn5   Zn    Zn3+2 0.307259 0.734472 0.403604 0.000000
Zn6   Zn    Zn3+2 0.487179 0.844313 0.577537 0.000000
Zn7   Zn    Zn3+2 0.850722 0.965223 0.589151 0.000000
Zn8   Zn    Zn3+2 0.490019 0.078141 0.505547 0.000000
Zn9   Zn    Zn3+2 0.536103 0.082419 0.289785 0.000000
Zn10  Zn    Zn3+2 0.417185 0.724400 0.288231 0.000000
Zn11  Zn    Zn3+2 0.918539 0.832069 0.261101 0.000000
Zn12  Zn    Zn3+2 0.921962 0.580426 0.179425 0.000000
Zn13  Zn    Zn3+2 0.733421 0.805365 0.074484 0.000000
Zn14  Zn    Zn3+2 0.852884 0.836074 0.780196 0.000000
Zn15  Zn    Zn3+2 0.856205 0.348668 0.782449 0.000000
Zn16  Zn    Zn3+2 0.980393 0.848433 0.787479 0.000000
Zn17  Zn    Zn3+2 0.362332 0.330687 0.570548 0.000000
Zn18  Zn    Zn3+2 0.986305 0.211652 0.599372 0.000000
Zn19  Zn    Zn3+2 0.491164 0.323552 0.569127 0.000000
Zn20  Zn    Zn3+2 0.314676 0.477924 0.411375 0.000000
Zn21  Zn    Zn3+2 0.982888 0.350851 0.784107 0.000000
Zn22  Zn    Zn3+2 0.820696 0.221626 0.955234 0.000000
Zn23  Zn    Zn3+2 0.026002 0.973036 0.949834 0.000000
Zn24  Zn    Zn3+2 0.028076 0.229864 0.955558 0.000000
Zn25  Zn    Zn3+2 0.805784 0.961018 0.955036 0.000000
Zn26  Zn    Zn3+2 0.821746 0.210867 0.391184 0.000000
Zn27  Zn    Zn3+2 0.017037 0.958008 0.388107 0.000000
Zn28  Zn    Zn3+2 0.219898 0.721500 0.092811 0.000000
Zn29  Zn    Zn3+2 0.486740 0.444287 0.761887 0.000000
Zn30  Zn    Zn3+2 0.426259 0.096639 0.166785 0.000000
Zn31  Zn    Zn3+2 0.721756 0.221268 0.257899 0.000000
Zn32  Zn    Zn3+2 0.423862 0.840884 0.090996 0.000000
Zn33  Zn    Zn3+2 0.422448 0.342202 0.081190 0.000000
Zn34  Zn    Zn3+2 0.924899 0.203373 0.082720 0.000000
Zn35  Zn    Zn3+2 0.919477 0.339751 0.276323 0.000000
Zn36  Zn    Zn3+2 0.424095 0.471507 0.280550 0.000000
Zn37  Zn    Zn3+2 0.916217 0.954121 0.065813 0.000000
Zn38  Zn    Zn3+2 0.033758 0.594915 0.061529 0.000000
Zn39  Zn    Zn3+2 0.813229 0.597460 0.058443 0.000000
Zn40  Zn    Zn3+2 0.126246 0.226936 0.268156 0.000000
Zn41  Zn    Zn3+2 0.603567 0.300463 0.275201 0.000000
Zn42  Zn    Zn3+2 0.361242 0.713389 0.767656 0.000000
Zn43  Zn    Zn3+2 0.622241 0.432186 0.090208 0.000000
Zn44  Zn    Zn3+2 0.625082 0.699351 0.092214 0.000000
Zn45  Zn    Zn3+2 0.819243 0.940550 0.383537 0.000000
Zn46  Zn    Zn3+2 0.856051 0.218119 0.599521 0.000000
Zn47  Zn    Zn3+2 0.857432 0.596872 0.849216 0.000000
Zn48  Zn    Zn3+2 0.315175 0.098693 0.291128 0.000000
Zn49  Zn    Zn3+2 0.359061 0.087307 0.508021 0.000000
Zn50  Zn    Zn3+2 0.983341 0.601060 0.854302 0.000000
Zn51  Zn    Zn3+2 0.977752 0.965397 0.592216 0.000000
Zn52  Zn    Zn3+2 0.355285 0.846631 0.579576 0.000000
Zn53  Zn    Zn3+2 0.486980 0.698050 0.762753 0.000000
Zn54  Zn    Zn3+2 0.360072 0.459999 0.756728 0.000000
Zn55  Zn    Zn3+2 0.325219 0.727843 0.972839 0.000000
Zn56  Zn    Zn3+2 0.522245 0.433260 0.967774 0.000000
Zn57  Zn    Zn3+2 0.520360 0.696358 0.972644 0.000000
Zn58  Zn    Zn3+2 0.323658 0.460779 0.967368 0.000000
Zn59  Zn    Zn3+2 0.104474 0.381121 0.091697 0.000000
Zn60  Zn    Zn3+2 0.238980 0.881667 0.269851 0.000000
Zn61  Zn    Zn3+2 0.747750 0.374042 0.082649 0.000000
Zn62  Zn    Zn3+2 0.020071 0.224871 0.384889 0.000000
Zn63  Zn    Zn3+2 0.244217 0.324931 0.273165 0.000000
Zn64  Zn    Zn3+2 0.222669 0.455586 0.092152 0.000000
Zn65  Zn    Zn3+2 0.097238 0.823987 0.080693 0.000000
Zn66  Zn    Zn3+2 0.532273 0.719187 0.404656 0.000000
C1    C     C_3   0.793317 0.024788 0.293472 0.000000
C2    C     C_3   0.781784 0.971264 0.283446 0.000000
C3    C     C_3   0.800927 0.928590 0.269348 0.000000
C4    C     C_R   0.768190 0.948834 0.320339 0.000000
N1    N     N_R   0.780784 0.928439 0.357066 0.000000
C5    C     C_R   0.762076 0.897382 0.373692 0.000000
C6    C     C_R   0.764124 0.862439 0.407984 0.000000
C7    C     C_R   0.741805 0.839286 0.423298 0.000000
C8    C     C_R   0.717915 0.852503 0.405208 0.000000
C9    C     C_R   0.716461 0.886568 0.369567 0.000000
C10   C     C_R   0.739144 0.904599 0.351640 0.000000
N2    N     N_R   0.742585 0.934269 0.315055 0.000000
C11   C     C_2   0.694315 0.829214 0.423245 0.000000
O1    O     O_2   0.695484 0.800822 0.455514 0.000000
O2    O     O_2   0.671351 0.837620 0.403499 0.000000
H1    H     H_    0.778116 0.055564 0.290422 0.000000
H2    H     H_    0.800736 0.023810 0.326639 0.000000
H3    H     H_    0.809115 0.034151 0.270703 0.000000
H4    H     H_    0.766693 0.979703 0.259915 0.000000
H5    H     H_    0.790712 0.892614 0.256486 0.000000
H6    H     H_    0.815059 0.943186 0.245881 0.000000
H7    H     H_    0.811397 0.915544 0.298215 0.000000
H8    H     H_    0.782356 0.854833 0.424128 0.000000
H9    H     H_    0.743175 0.812468 0.450776 0.000000
H10   H     H_    0.698064 0.899716 0.357160 0.000000
H11   H     H_    0.656179 0.819936 0.414383 0.000000
C12   C     C_3   0.555694 0.736003 0.250667 0.000000
C13   C     C_3   0.561538 0.720926 0.298156 0.000000
C14   C     C_3   0.580250 0.674943 0.302352 0.000000
C15   C     C_R   0.569045 0.766436 0.327611 0.000000
N3    N     N_R   0.585268 0.809275 0.317683 0.000000
C16   C     C_R   0.591518 0.827069 0.359109 0.000000
C17   C     C_R   0.606854 0.869857 0.370285 0.000000
C18   C     C_R   0.611640 0.881132 0.414788 0.000000
C19   C     C_R   0.601190 0.849398 0.447275 0.000000
C20   C     C_R   0.584284 0.808632 0.435300 0.000000
C21   C     C_R   0.579235 0.798816 0.390896 0.000000
N4    N     N_R   0.562987 0.762467 0.372087 0.000000
C22   C     C_2   0.608642 0.858341 0.494046 0.000000
O3    O     O_2   0.598267 0.833317 0.523240 0.000000
O4    O     O_2   0.627954 0.892300 0.504646 0.000000
H12   H     H_    0.542689 0.770120 0.248635 0.000000
H13   H     H_    0.573146 0.750073 0.235514 0.000000
H14   H     H_    0.547371 0.701601 0.231556 0.000000
H15   H     H_    0.544668 0.704376 0.314385 0.000000
H16   H     H_    0.576364 0.656158 0.334195 0.000000
H17   H     H_    0.576399 0.643721 0.276437 0.000000
H18   H     H_    0.600475 0.688540 0.303047 0.000000
H19   H     H_    0.614319 0.895370 0.345429 0.000000
H20   H     H_    0.624036 0.914353 0.423802 0.000000
H21   H     H_    0.576127 0.784176 0.459843 0.000000
H22   H     H_    0.633971 0.895914 0.535055 0.000000
C23   C     C_3   0.560903 0.962955 0.367428 0.000000
C24   C     C_3   0.552360 0.934087 0.325708 0.000000
C25   C     C_3   0.523700 0.933341 0.321931 0.000000
C26   C     C_R   0.563443 0.959233 0.286498 0.000000
N5    N     N_R   0.557458 0.010709 0.272716 0.000000
C27   C     C_R   0.572354 0.013537 0.236404 0.000000
C28   C     C_R   0.573397 0.055033 0.208550 0.000000
C29   C     C_R   0.589374 0.050647 0.171787 0.000000
C30   C     C_R   0.604514 0.005518 0.164528 0.000000
C31   C     C_R   0.604176 0.964689 0.194812 0.000000
C32   C     C_R   0.586639 0.968340 0.229267 0.000000
N6    N     N_R   0.581398 0.931845 0.260350 0.000000
C33   C     C_2   0.617983 0.998764 0.121900 0.000000
O5    O     O_2   0.621833 0.037213 0.098925 0.000000
O6    O     O_2   0.622948 0.949511 0.105210 0.000000
H23   H     H_    0.551245 0.001807 0.368014 0.000000
H24   H     H_    0.555485 0.940497 0.397217 0.000000
H25   H     H_    0.582112 0.968825 0.366507 0.000000
H26   H     H_    0.558803 0.892558 0.326170 0.000000
H27   H     H_    0.517712 0.955057 0.292294 0.000000
H28   H     H_    0.518111 0.892234 0.315915 0.000000
H29   H     H_    0.514759 0.947715 0.353428 0.000000
H30   H     H_    0.560396 0.087900 0.214048 0.000000
H31   H     H_    0.588832 0.081065 0.147108 0.000000
H32   H     H_    0.616424 0.930038 0.190464 0.000000
H33   H     H_    0.629228 0.945045 0.075039 0.000000
C34   C     C_3   0.649873 0.997284 0.329660 0.000000
C35   C     C_3   0.643010 0.976859 0.283254 0.000000
C36   C     C_3   0.651651 0.014465 0.248050 0.000000
C37   C     C_R   0.654254 0.923193 0.274994 0.000000
N7    N     N_R   0.680645 0.914240 0.274557 0.000000
C38   C     C_R   0.681840 0.861325 0.281684 0.000000
C39   C     C_R   0.703504 0.829644 0.284276 0.000000
C40   C     C_R   0.700614 0.778822 0.300274 0.000000
C41   C     C_R   0.676383 0.760612 0.312859 0.000000
C42   C     C_R   0.654573 0.791987 0.306480 0.000000
C43   C     C_R   0.657860 0.840883 0.287881 0.000000
N8    N     N_R   0.639643 0.877424 0.279180 0.000000
C44   C     C_2   0.673545 0.706315 0.328843 0.000000
O7    O     O_2   0.692370 0.681686 0.341752 0.000000
O8    O     O_2   0.650403 0.682074 0.326115 0.000000
H34   H     H_    0.670921 0.996554 0.334717 0.000000
H35   H     H_    0.642016 0.038159 0.334770 0.000000
H36   H     H_    0.640987 0.971236 0.354498 0.000000
H37   H     H_    0.622095 0.974107 0.283767 0.000000
H38   H     H_    0.656674 0.991869 0.217017 0.000000
H39   H     H_    0.635794 0.042811 0.240976 0.000000
H40   H     H_    0.668625 0.036394 0.260619 0.000000
H41   H     H_    0.722478 0.844391 0.276599 0.000000
H42   H     H_    0.717533 0.753799 0.303531 0.000000
H43   H     H_    0.635708 0.778743 0.316289 0.000000
H44   H     H_    0.648899 0.644673 0.332420 0.000000
C45   C     C_3   0.132102 0.813599 0.165276 0.000000
C46   C     C_3   0.134845 0.872871 0.167744 0.000000
C47   C     C_3   0.138416 0.902317 0.124423 0.000000
C48   C     C_R   0.109166 0.886219 0.176792 0.000000
N9    N     N_R   0.091333 0.875876 0.143260 0.000000
C49   C     C_R   0.072752 0.911557 0.155746 0.000000
C50   C     C_R   0.050585 0.924510 0.133957 0.000000
C51   C     C_R   0.039171 0.972523 0.146617 0.000000
C52   C     C_R   0.050139 0.007159 0.177893 0.000000
C53   C     C_R   0.069672 0.989651 0.204367 0.000000
C54   C     C_R   0.080372 0.941631 0.192678 0.000000
N10   N     N_R   0.102701 0.924454 0.208556 0.000000
C55   C     C_2   0.040615 0.061838 0.183225 0.000000
O9    O     O_2   0.032501 0.085476 0.151137 0.000000
O10   O     O_2   0.038465 0.084109 0.224279 0.000000
H45   H     H_    0.126035 0.799691 0.198395 0.000000
H46   H     H_    0.118223 0.799906 0.140288 0.000000
H47   H     H_    0.149237 0.794231 0.155082 0.000000
H48   H     H_    0.147955 0.886840 0.194640 0.000000
H49   H     H_    0.127180 0.939521 0.126858 0.000000
H50   H     H_    0.158109 0.914795 0.116463 0.000000
H51   H     H_    0.129249 0.881553 0.096430 0.000000
H52   H     H_    0.043599 0.901331 0.105700 0.000000
H53   H     H_    0.022821 0.986276 0.129278 0.000000
H54   H     H_    0.077740 0.014604 0.230704 0.000000
H55   H     H_    0.029026 0.117098 0.228599 0.000000
C56   C     C_3   0.188887 0.031268 0.239174 0.000000
C57   C     C_3   0.189184 0.973665 0.224366 0.000000
C58   C     C_3   0.215285 0.964999 0.202843 0.000000
C59   C     C_R   0.182093 0.936147 0.261342 0.000000
N11   N     N_R   0.199460 0.898686 0.277190 0.000000
C60   C     C_R   0.183891 0.864590 0.297937 0.000000
C61   C     C_R   0.190574 0.815674 0.313443 0.000000
C62   C     C_R   0.171615 0.784318 0.331200 0.000000
C63   C     C_R   0.146099 0.801640 0.332012 0.000000
C64   C     C_R   0.139437 0.849889 0.313279 0.000000
C65   C     C_R   0.158833 0.881116 0.296691 0.000000
N12   N     N_R   0.156531 0.927213 0.274630 0.000000
C66   C     C_2   0.126308 0.768156 0.352076 0.000000
O11   O     O_2   0.131720 0.723230 0.363646 0.000000
O12   O     O_2   0.102334 0.787362 0.359213 0.000000
H56   H     H_    0.204542 0.040055 0.263192 0.000000
H57   H     H_    0.191255 0.056358 0.209712 0.000000
H58   H     H_    0.170623 0.040114 0.255035 0.000000
H59   H     H_    0.175250 0.966848 0.197189 0.000000
H60   H     H_    0.222471 0.924665 0.207320 0.000000
H61   H     H_    0.213336 0.972010 0.166697 0.000000
H62   H     H_    0.229362 0.994659 0.215644 0.000000
H63   H     H_    0.209839 0.800886 0.310189 0.000000
H64   H     H_    0.176959 0.745895 0.343881 0.000000
H65   H     H_    0.119618 0.861856 0.311092 0.000000
H66   H     H_    0.089409 0.765274 0.372660 0.000000
C67   C     C_3   0.122468 0.112457 0.363576 0.000000
C68   C     C_3   0.140533 0.105684 0.326112 0.000000
C69   C     C_3   0.159694 0.062227 0.337915 0.000000
C70   C     C_R   0.127207 0.097836 0.281397 0.000000
N13   N     N_R   0.123594 0.047448 0.259821 0.000000
C71   C     C_R   0.127425 0.060048 0.217078 0.000000
C72   C     C_R   0.133711 0.024416 0.183533 0.000000
C73   C     C_R   0.144873 0.041435 0.144829 0.000000
C74   C     C_R   0.151712 0.093892 0.141870 0.000000
C75   C     C_R   0.146044 0.128440 0.176884 0.000000
C76   C     C_R   0.132181 0.112808 0.212943 0.000000
N14   N     N_R   0.129334 0.140063 0.252299 0.000000
C77   C     C_2   0.166958 0.111891 0.103939 0.000000
O13   O     O_2   0.171513 0.081384 0.072555 0.000000
O14   O     O_2   0.176428 0.161853 0.103952 0.000000
H67   H     H_    0.119257 0.072065 0.375210 0.000000
H68   H     H_    0.131602 0.136792 0.390710 0.000000
H69   H     H_    0.105159 0.132735 0.351243 0.000000
H70   H     H_    0.150753 0.144183 0.325611 0.000000
H71   H     H_    0.178969 0.071682 0.324956 0.000000
H72   H     H_    0.161901 0.060336 0.374625 0.000000
H73   H     H_    0.153339 0.023112 0.324412 0.000000
H74   H     H_    0.134272 0.983474 0.190290 0.000000
H75   H     H_    0.151150 0.012931 0.119522 0.000000
H76   H     H_    0.152845 0.167084 0.175990 0.000000
H77   H     H_    0.186605 0.173463 0.079111 0.000000
C78   C     C_3   0.511106 0.605673 0.350781 0.000000
C79   C     C_3   0.506113 0.598699 0.398908 0.000000
C80   C     C_3   0.488414 0.554522 0.411261 0.000000
C81   C     C_R   0.531649 0.591762 0.414350 0.000000
N15   N     N_R   0.545601 0.543725 0.410272 0.000000
C82   C     C_R   0.570074 0.563367 0.410854 0.000000
C83   C     C_R   0.592701 0.536826 0.401638 0.000000
C84   C     C_R   0.615769 0.564430 0.405541 0.000000
C85   C     C_R   0.615875 0.619057 0.415168 0.000000
C86   C     C_R   0.592750 0.646969 0.416702 0.000000
C87   C     C_R   0.570146 0.618273 0.415105 0.000000
N16   N     N_R   0.545879 0.637891 0.414855 0.000000
C88   C     C_2   0.640341 0.647316 0.423006 0.000000
O15   O     O_2   0.660728 0.622726 0.422950 0.000000
O16   O     O_2   0.640384 0.700489 0.430783 0.000000
H78   H     H_    0.531666 0.599385 0.342903 0.000000
H79   H     H_    0.498755 0.578168 0.332675 0.000000
H80   H     H_    0.507937 0.646775 0.341541 0.000000
H81   H     H_    0.498835 0.636053 0.413608 0.000000
H82   H     H_    0.479125 0.566221 0.443210 0.000000
H83   H     H_    0.473526 0.546876 0.385967 0.000000
H84   H     H_    0.499495 0.518083 0.415530 0.000000
H85   H     H_    0.592701 0.496557 0.389436 0.000000
H86   H     H_    0.633707 0.542896 0.400378 0.000000
H87   H     H_    0.592315 0.689873 0.420479 0.000000
H88   H     H_    0.656523 0.718950 0.435941 0.000000
C89   C     C_3   0.526609 0.363810 0.306533 0.000000
C90   C     C_3   0.554957 0.372567 0.297798 0.000000
C91   C     C_3   0.564848 0.421489 0.275012 0.000000
C92   C     C_R   0.569184 0.373166 0.337475 0.000000
N17   N     N_R   0.564496 0.405642 0.374949 0.000000
C93   C     C_R   0.586501 0.397094 0.398071 0.000000
C94   C     C_R   0.592435 0.416852 0.439997 0.000000
C95   C     C_R   0.616691 0.406078 0.457000 0.000000
C96   C     C_R   0.634353 0.375286 0.432413 0.000000
C97   C     C_R   0.627450 0.353003 0.391158 0.000000
C98   C     C_R   0.603388 0.364679 0.374185 0.000000
N18   N     N_R   0.592893 0.349278 0.334344 0.000000
C99   C     C_2   0.660645 0.367523 0.449663 0.000000
O17   O     O_2   0.666231 0.382839 0.487400 0.000000
O18   O     O_2   0.679016 0.345395 0.423309 0.000000
H89   H     H_    0.522242 0.370418 0.342300 0.000000
H90   H     H_    0.514553 0.388624 0.285346 0.000000
H91   H     H_    0.522180 0.321362 0.298539 0.000000
H92   H     H_    0.562546 0.336443 0.281140 0.000000
H93   H     H_    0.583492 0.412889 0.258988 0.000000
H94   H     H_    0.550922 0.437271 0.251017 0.000000
H95   H     H_    0.571889 0.450777 0.300069 0.000000
H96   H     H_    0.578854 0.441672 0.458528 0.000000
H97   H     H_    0.621886 0.423027 0.489304 0.000000
H98   H     H_    0.640712 0.327323 0.373137 0.000000
H99   H     H_    0.696516 0.342227 0.434274 0.000000
C100  C     C_3   0.345068 0.618567 0.338441 0.000000
C101  C     C_3   0.361874 0.657016 0.364677 0.000000
C102  C     C_3   0.388432 0.636597 0.369857 0.000000
C103  C     C_R   0.361331 0.711478 0.347327 0.000000
N19   N     N_R   0.380420 0.737486 0.322264 0.000000
C104  C     C_R   0.369452 0.785331 0.317811 0.000000
C105  C     C_R   0.380037 0.830239 0.300464 0.000000
C106  C     C_R   0.364575 0.874981 0.297442 0.000000
C107  C     C_R   0.338711 0.871602 0.308545 0.000000
C108  C     C_R   0.328984 0.826112 0.325617 0.000000
C109  C     C_R   0.345096 0.785575 0.333949 0.000000
N20   N     N_R   0.339938 0.742150 0.357645 0.000000
C110  C     C_2   0.321277 0.916319 0.308455 0.000000
O19   O     O_2   0.329310 0.961117 0.302902 0.000000
O20   O     O_2   0.297229 0.908225 0.323544 0.000000
H100  H     H_    0.356991 0.597670 0.314449 0.000000
H101  H     H_    0.337864 0.586548 0.359228 0.000000
H102  H     H_    0.328897 0.639507 0.322302 0.000000
H103  H     H_    0.353416 0.661407 0.397178 0.000000
H104  H     H_    0.394063 0.636508 0.405232 0.000000
H105  H     H_    0.391138 0.597721 0.353232 0.000000
H106  H     H_    0.400081 0.664419 0.353053 0.000000
H107  H     H_    0.399723 0.831039 0.290356 0.000000
H108  H     H_    0.372577 0.911624 0.285951 0.000000
H109  H     H_    0.309897 0.824065 0.337026 0.000000
H110  H     H_    0.286673 0.935624 0.336773 0.000000
C111  C     C_3   0.285135 0.699159 0.300850 0.000000
C112  C     C_3   0.262010 0.736137 0.301513 0.000000
C113  C     C_3   0.238164 0.707541 0.316987 0.000000
C114  C     C_R   0.266877 0.784970 0.330144 0.000000
N21   N     N_R   0.275743 0.778561 0.373592 0.000000
C115  C     C_R   0.263023 0.818355 0.395395 0.000000
C116  C     C_R   0.259510 0.824262 0.440322 0.000000
C117  C     C_R   0.242865 0.862812 0.456802 0.000000
C118  C     C_R   0.228548 0.893014 0.427812 0.000000
C119  C     C_R   0.231723 0.885608 0.382251 0.000000
C120  C     C_R   0.249707 0.849486 0.366662 0.000000
N22   N     N_R   0.253093 0.832577 0.324010 0.000000
C121  C     C_2   0.209251 0.930768 0.445410 0.000000
O21   O     O_2   0.206791 0.938033 0.485487 0.000000
O22   O     O_2   0.194539 0.958607 0.417425 0.000000
H111  H     H_    0.287926 0.682359 0.333871 0.000000
H112  H     H_    0.281955 0.666297 0.275974 0.000000
H113  H     H_    0.302738 0.721395 0.292181 0.000000
H114  H     H_    0.256990 0.745889 0.267889 0.000000
H115  H     H_    0.222800 0.713455 0.291999 0.000000
H116  H     H_    0.241893 0.664165 0.319539 0.000000
H117  H     H_    0.231259 0.725609 0.348766 0.000000
H118  H     H_    0.268456 0.798419 0.462516 0.000000
H119  H     H_    0.240176 0.866786 0.492428 0.000000
H120  H     H_    0.218580 0.903216 0.359728 0.000000
H121  H     H_    0.184352 0.988097 0.429074 0.000000
C122  C     C_3   0.321119 0.584300 0.511166 0.000000
C123  C     C_3   0.324962 0.625335 0.475739 0.000000
C124  C     C_3   0.350414 0.655144 0.479318 0.000000
C125  C     C_R   0.314985 0.610758 0.429596 0.000000
N23   N     N_R   0.303249 0.560936 0.422795 0.000000
C126  C     C_R   0.278771 0.575969 0.413626 0.000000
C127  C     C_R   0.257023 0.548408 0.424282 0.000000
C128  C     C_R   0.233512 0.574937 0.425645 0.000000
C129  C     C_R   0.231993 0.629002 0.417643 0.000000
C130  C     C_R   0.254318 0.656695 0.408666 0.000000
C131  C     C_R   0.277315 0.629461 0.406899 0.000000
N24   N     N_R   0.300630 0.651969 0.411723 0.000000
C132  C     C_2   0.207280 0.657496 0.423015 0.000000
O23   O     O_2   0.187329 0.632682 0.428172 0.000000
O24   O     O_2   0.206556 0.711202 0.423159 0.000000
H122  H     H_    0.328009 0.544229 0.500926 0.000000
H123  H     H_    0.330912 0.597127 0.542545 0.000000
H124  H     H_    0.300222 0.583651 0.518712 0.000000
H125  H     H_    0.311198 0.655435 0.486587 0.000000
H126  H     H_    0.366099 0.632904 0.462995 0.000000
H127  H     H_    0.348621 0.694496 0.463988 0.000000
H128  H     H_    0.355454 0.663200 0.514495 0.000000
H129  H     H_    0.258294 0.508128 0.434552 0.000000
H130  H     H_    0.216535 0.553834 0.435714 0.000000
H131  H     H_    0.254259 0.699488 0.408246 0.000000
H132  H     H_    0.190308 0.729835 0.427142 0.000000
C133  C     C_3   0.450824 0.958232 0.596548 0.000000
C134  C     C_3   0.464146 0.953090 0.552599 0.000000
C135  C     C_3   0.452486 0.977099 0.514574 0.000000
C136  C     C_R   0.490278 0.965044 0.558145 0.000000
N25   N     N_R   0.504051 0.007978 0.542156 0.000000
C137  C     C_R   0.528531 0.991557 0.551993 0.000000
C138  C     C_R   0.551650 0.016622 0.544696 0.000000
C139  C     C_R   0.574148 0.994329 0.560695 0.000000
C140  C     C_R   0.573669 0.946824 0.583279 0.000000
C141  C     C_R   0.550601 0.919486 0.587533 0.000000
C142  C     C_R   0.528395 0.942345 0.571448 0.000000
N26   N     N_R   0.504154 0.923170 0.573253 0.000000
C143  C     C_2   0.597407 0.927204 0.604234 0.000000
O25   O     O_2   0.616895 0.954446 0.604738 0.000000
O26   O     O_2   0.597736 0.879591 0.623733 0.000000
H133  H     H_    0.453274 0.996800 0.613437 0.000000
H134  H     H_    0.430736 0.947047 0.592245 0.000000
H135  H     H_    0.460045 0.930215 0.618634 0.000000
H136  H     H_    0.465607 0.912251 0.542887 0.000000
H137  H     H_    0.446818 0.946566 0.489610 0.000000
H138  H     H_    0.435938 0.996762 0.528421 0.000000
H139  H     H_    0.466498 0.003327 0.500201 0.000000
H140  H     H_    0.552735 0.054611 0.530097 0.000000
H141  H     H_    0.592054 0.015726 0.556684 0.000000
H142  H     H_    0.549745 0.883931 0.606385 0.000000
H143  H     H_    0.613415 0.867012 0.637584 0.000000
C144  C     C_3   0.543084 0.138600 0.469227 0.000000
C145  C     C_3   0.548370 0.108765 0.426801 0.000000
C146  C     C_3   0.566083 0.063053 0.439507 0.000000
C147  C     C_R   0.523898 0.087415 0.406447 0.000000
N27   N     N_R   0.503518 0.068815 0.433079 0.000000
C148  C     C_R   0.489795 0.041751 0.401043 0.000000
C149  C     C_R   0.471876 0.002174 0.405048 0.000000
C150  C     C_R   0.457350 0.987183 0.368392 0.000000
C151  C     C_R   0.464454 0.002140 0.326856 0.000000
C152  C     C_R   0.487052 0.029171 0.322320 0.000000
C153  C     C_R   0.499003 0.050013 0.359364 0.000000
N28   N     N_R   0.521165 0.077112 0.359864 0.000000
C154  C     C_2   0.450024 0.984665 0.287534 0.000000
O27   O     O_2   0.429918 0.960104 0.290912 0.000000
O28   O     O_2   0.459384 0.994842 0.247167 0.000000
H144  H     H_    0.529267 0.170572 0.464159 0.000000
H145  H     H_    0.534673 0.109685 0.491212 0.000000
H146  H     H_    0.561122 0.155631 0.483691 0.000000
H147  H     H_    0.557263 0.137465 0.404702 0.000000
H148  H     H_    0.554296 0.029585 0.451517 0.000000
H149  H     H_    0.577731 0.048481 0.411330 0.000000
H150  H     H_    0.579806 0.076275 0.465997 0.000000
H151  H     H_    0.467800 0.984161 0.435143 0.000000
H152  H     H_    0.440704 0.962821 0.372287 0.000000
H153  H     H_    0.496094 0.029683 0.290814 0.000000
H154  H     H_    0.450808 0.981180 0.220881 0.000000
C155  C     C_3   0.864266 0.692614 0.244681 0.000000
C156  C     C_3   0.882651 0.705661 0.207401 0.000000
C157  C     C_3   0.877440 0.760002 0.191852 0.000000
C158  C     C_R   0.909952 0.702052 0.222180 0.000000
N29   N     N_R   0.922665 0.742694 0.247093 0.000000
C159  C     C_R   0.942496 0.713683 0.263233 0.000000
C160  C     C_R   0.964309 0.732755 0.281520 0.000000
C161  C     C_R   0.982700 0.697630 0.297087 0.000000
C162  C     C_R   0.979031 0.643121 0.292896 0.000000
C163  C     C_R   0.958459 0.624027 0.267213 0.000000
C164  C     C_R   0.941255 0.660949 0.251005 0.000000
N30   N     N_R   0.922565 0.652669 0.220720 0.000000
C165  C     C_2   0.998952 0.607659 0.310986 0.000000
O29   O     O_2   0.014894 0.625329 0.337491 0.000000
O30   O     O_2   0.000736 0.556506 0.296793 0.000000
H155  H     H_    0.875398 0.678003 0.273401 0.000000
H156  H     H_    0.852510 0.727886 0.254926 0.000000
H157  H     H_    0.850954 0.660865 0.232579 0.000000
H158  H     H_    0.878776 0.676787 0.180454 0.000000
H159  H     H_    0.892113 0.770920 0.167048 0.000000
H160  H     H_    0.857868 0.760707 0.177131 0.000000
H161  H     H_    0.878841 0.786312 0.221597 0.000000
H162  H     H_    0.966889 0.774456 0.280686 0.000000
H163  H     H_    0.000456 0.712718 0.311494 0.000000
H164  H     H_    0.956109 0.582154 0.259379 0.000000
H165  H     H_    0.014864 0.534481 0.306753 0.000000
C166  C     C_3   0.679860 0.917785 0.116856 0.000000
C167  C     C_3   0.684422 0.888751 0.158755 0.000000
C168  C     C_3   0.665148 0.845041 0.162940 0.000000
C169  C     C_R   0.712159 0.874233 0.167312 0.000000
N31   N     N_R   0.729812 0.845920 0.139425 0.000000
C170  C     C_R   0.751884 0.854225 0.162591 0.000000
C171  C     C_R   0.776651 0.842799 0.149378 0.000000
C172  C     C_R   0.795194 0.879222 0.161701 0.000000
C173  C     C_R   0.786218 0.929338 0.173369 0.000000
C174  C     C_R   0.762183 0.935063 0.189588 0.000000
C175  C     C_R   0.748252 0.891818 0.195114 0.000000
N32   N     N_R   0.723723 0.900202 0.203384 0.000000
C176  C     C_2   0.800823 0.977241 0.171838 0.000000
O31   O     O_2   0.823747 0.975411 0.164121 0.000000
O32   O     O_2   0.788977 0.022526 0.185731 0.000000
H166  H     H_    0.698354 0.924768 0.099718 0.000000
H167  H     H_    0.665688 0.895180 0.096662 0.000000
H168  H     H_    0.670414 0.955959 0.126120 0.000000
H169  H     H_    0.679422 0.917752 0.185778 0.000000
H170  H     H_    0.668348 0.828019 0.195544 0.000000
H171  H     H_    0.645548 0.862688 0.162263 0.000000
H172  H     H_    0.666870 0.815140 0.135669 0.000000
H173  H     H_    0.780774 0.815236 0.122306 0.000000
H174  H     H_    0.814541 0.873629 0.149869 0.000000
H175  H     H_    0.752869 0.972942 0.195276 0.000000
H176  H     H_    0.797277 0.049367 0.203899 0.000000
C177  C     C_3   0.837042 0.006791 0.708141 0.000000
C178  C     C_3   0.826782 0.952401 0.717030 0.000000
C179  C     C_3   0.798273 0.946224 0.706530 0.000000
C180  C     C_R   0.841896 0.911744 0.691940 0.000000
N33   N     N_R   0.841611 0.910943 0.644981 0.000000
C181  C     C_R   0.836781 0.858883 0.636595 0.000000
C182  C     C_R   0.828965 0.835742 0.596844 0.000000
C183  C     C_R   0.821432 0.783153 0.595797 0.000000
C184  C     C_R   0.820441 0.755172 0.634840 0.000000
C185  C     C_R   0.828905 0.779187 0.674546 0.000000
C186  C     C_R   0.837769 0.830420 0.674860 0.000000
N34   N     N_R   0.843429 0.862019 0.711076 0.000000
C187  C     C_2   0.808489 0.702069 0.633958 0.000000
O33   O     O_2   0.805966 0.677245 0.598675 0.000000
O34   O     O_2   0.798907 0.681768 0.671467 0.000000
H177  H     H_    0.839488 0.007948 0.672625 0.000000
H178  H     H_    0.824069 0.038826 0.721137 0.000000
H179  H     H_    0.856802 0.011142 0.721281 0.000000
H180  H     H_    0.827703 0.943516 0.752013 0.000000
H181  H     H_    0.790610 0.913072 0.726264 0.000000
H182  H     H_    0.787702 0.983154 0.716445 0.000000
H183  H     H_    0.795151 0.935475 0.671020 0.000000
H184  H     H_    0.826750 0.858176 0.567461 0.000000
H185  H     H_    0.814373 0.765650 0.564768 0.000000
H186  H     H_    0.827034 0.760439 0.705276 0.000000
H187  H     H_    0.790653 0.647246 0.670522 0.000000
C188  C     C_3   0.926368 0.927133 0.743417 0.000000
C189  C     C_3   0.917650 0.870660 0.733694 0.000000
C190  C     C_3   0.935373 0.834414 0.706737 0.000000
C191  C     C_R   0.916912 0.850446 0.776248 0.000000
N35   N     N_R   0.938394 0.853960 0.803943 0.000000
C192  C     C_R   0.926559 0.851087 0.843305 0.000000
C193  C     C_R   0.936400 0.860574 0.884248 0.000000
C194  C     C_R   0.921351 0.845062 0.919242 0.000000
C195  C     C_R   0.901076 0.810331 0.910399 0.000000
C196  C     C_R   0.888886 0.811567 0.869831 0.000000
C197  C     C_R   0.900955 0.838940 0.838192 0.000000
N36   N     N_R   0.893416 0.841266 0.795954 0.000000
C198  C     C_2   0.890277 0.777948 0.944555 0.000000
O35   O     O_2   0.900839 0.774579 0.980660 0.000000
O36   O     O_2   0.867754 0.753186 0.936713 0.000000
H188  H     H_    0.939923 0.932314 0.771053 0.000000
H189  H     H_    0.935320 0.942165 0.714533 0.000000
H190  H     H_    0.909856 0.952428 0.753470 0.000000
H191  H     H_    0.897548 0.869070 0.722128 0.000000
H192  H     H_    0.925014 0.798298 0.695111 0.000000
H193  H     H_    0.943398 0.852391 0.677248 0.000000
H194  H     H_    0.951010 0.821931 0.728485 0.000000
H195  H     H_    0.955008 0.878075 0.888771 0.000000
H196  H     H_    0.927838 0.852963 0.952811 0.000000
H197  H     H_    0.871981 0.788805 0.861867 0.000000
H198  H     H_    0.860917 0.730937 0.959371 0.000000
C199  C     C_3   0.782345 0.839502 0.835077 0.000000
C200  C     C_3   0.800459 0.840364 0.874611 0.000000
C201  C     C_3   0.813534 0.788747 0.882783 0.000000
C202  C     C_R   0.819049 0.883340 0.868058 0.000000
N37   N     N_R   0.836077 0.886279 0.831992 0.000000
C203  C     C_R   0.841511 0.939073 0.833804 0.000000
C204  C     C_R   0.858399 0.967958 0.809246 0.000000
C205  C     C_R   0.853273 0.022332 0.806973 0.000000
C206  C     C_R   0.830131 0.042654 0.824349 0.000000
C207  C     C_R   0.817244 0.014329 0.855464 0.000000
C208  C     C_R   0.826501 0.965069 0.864255 0.000000
N38   N     N_R   0.814915 0.931158 0.890654 0.000000
C209  C     C_2   0.818952 0.093003 0.810296 0.000000
O37   O     O_2   0.830860 0.120821 0.785282 0.000000
O38   O     O_2   0.795876 0.109781 0.826057 0.000000
H199  H     H_    0.793972 0.843247 0.804824 0.000000
H200  H     H_    0.769689 0.803908 0.834766 0.000000
H201  H     H_    0.770329 0.875835 0.835455 0.000000
H202  H     H_    0.789597 0.849317 0.905086 0.000000
H203  H     H_    0.819412 0.789609 0.918006 0.000000
H204  H     H_    0.800017 0.755616 0.875601 0.000000
H205  H     H_    0.831007 0.785568 0.862938 0.000000
H206  H     H_    0.872658 0.948562 0.788377 0.000000
H207  H     H_    0.865322 0.046803 0.786593 0.000000
H208  H     H_    0.799024 0.027666 0.868913 0.000000
H209  H     H_    0.788928 0.143738 0.817264 0.000000
C210  C     C_3   0.783226 0.300840 0.835646 0.000000
C211  C     C_3   0.806214 0.326597 0.859153 0.000000
C212  C     C_3   0.800193 0.359782 0.900052 0.000000
C213  C     C_R   0.828530 0.291279 0.863445 0.000000
N39   N     N_R   0.831026 0.247625 0.890636 0.000000
C214  C     C_R   0.850762 0.221590 0.870343 0.000000
C215  C     C_R   0.854380 0.167932 0.867668 0.000000
C216  C     C_R   0.875654 0.147747 0.844992 0.000000
C217  C     C_R   0.891217 0.181633 0.821986 0.000000
C218  C     C_R   0.883212 0.233122 0.815878 0.000000
C219  C     C_R   0.861807 0.251311 0.838806 0.000000
N40   N     N_R   0.847415 0.294853 0.831616 0.000000
C220  C     C_2   0.915854 0.163045 0.804125 0.000000
O39   O     O_2   0.918005 0.117896 0.788598 0.000000
O40   O     O_2   0.936894 0.193804 0.809806 0.000000
H210  H     H_    0.783085 0.257234 0.840409 0.000000
H211  H     H_    0.764889 0.320009 0.846136 0.000000
H212  H     H_    0.784809 0.307819 0.799586 0.000000
H213  H     H_    0.814328 0.353367 0.835455 0.000000
H214  H     H_    0.809990 0.342209 0.928738 0.000000
H215  H     H_    0.808213 0.399797 0.894598 0.000000
H216  H     H_    0.779159 0.364253 0.905665 0.000000
H217  H     H_    0.839681 0.142475 0.879560 0.000000
H218  H     H_    0.880632 0.106134 0.846068 0.000000
H219  H     H_    0.892445 0.255286 0.790959 0.000000
H220  H     H_    0.953831 0.178577 0.804981 0.000000
C221  C     C_3   0.030643 0.819127 0.896254 0.000000
C222  C     C_3   0.005079 0.847601 0.899704 0.000000
C223  C     C_3   0.998976 0.854400 0.948434 0.000000
C224  C     C_R   0.005885 0.897948 0.874559 0.000000
N41   N     N_R   0.021472 0.940016 0.887829 0.000000
C225  C     C_R   0.030949 0.956849 0.848855 0.000000
C226  C     C_R   0.050658 0.992393 0.842530 0.000000
C227  C     C_R   0.064885 0.986874 0.803774 0.000000
C228  C     C_R   0.058908 0.946647 0.772596 0.000000
C229  C     C_R   0.036467 0.917183 0.777127 0.000000
C230  C     C_R   0.021744 0.925751 0.814695 0.000000
N42   N     N_R   0.003091 0.893439 0.829205 0.000000
C231  C     C_2   0.076360 0.934813 0.735124 0.000000
O41   O     O_2   0.097252 0.956992 0.733145 0.000000
O42   O     O_2   0.069477 0.899153 0.702848 0.000000
H221  H     H_    0.041344 0.824217 0.927513 0.000000
H222  H     H_    0.027188 0.775904 0.891950 0.000000
H223  H     H_    0.042214 0.835331 0.868944 0.000000
H224  H     H_    0.990838 0.821992 0.882626 0.000000
H225  H     H_    0.978635 0.865989 0.953101 0.000000
H226  H     H_    0.001323 0.815803 0.964189 0.000000
H227  H     H_    0.012702 0.882232 0.964847 0.000000
H228  H     H_    0.057078 0.019191 0.868664 0.000000
H229  H     H_    0.081797 0.011466 0.799799 0.000000
H230  H     H_    0.031735 0.886008 0.753245 0.000000
H231  H     H_    0.080967 0.891565 0.678128 0.000000
C232  C     C_3   0.383665 0.433595 0.489373 0.000000
C233  C     C_3   0.362105 0.412265 0.460208 0.000000
C234  C     C_3   0.365056 0.375824 0.419252 0.000000
C235  C     C_R   0.339569 0.404140 0.485429 0.000000
N43   N     N_R   0.338573 0.381345 0.527365 0.000000
C236  C     C_R   0.316548 0.404349 0.543207 0.000000
C237  C     C_R   0.305063 0.397332 0.583752 0.000000
C238  C     C_R   0.284916 0.430868 0.596423 0.000000
C239  C     C_R   0.277441 0.472540 0.569572 0.000000
C240  C     C_R   0.287992 0.476621 0.527468 0.000000
C241  C     C_R   0.306811 0.440755 0.514205 0.000000
N44   N     N_R   0.320109 0.439355 0.475509 0.000000
C242  C     C_2   0.258130 0.511749 0.585382 0.000000
O43   O     O_2   0.248781 0.508467 0.622457 0.000000
O44   O     O_2   0.250850 0.551897 0.559179 0.000000
H232  H     H_    0.384813 0.412350 0.520568 0.000000
H233  H     H_    0.402246 0.436433 0.471264 0.000000
H234  H     H_    0.376972 0.472531 0.502150 0.000000
H235  H     H_    0.354782 0.447438 0.445647 0.000000
H236  H     H_    0.361345 0.333206 0.424522 0.000000
H237  H     H_    0.348823 0.385686 0.398130 0.000000
H238  H     H_    0.383480 0.383326 0.401791 0.000000
H239  H     H_    0.312239 0.368721 0.606469 0.000000
H240  H     H_    0.276415 0.426485 0.628976 0.000000
H241  H     H_    0.281273 0.506285 0.504899 0.000000
H242  H     H_    0.238317 0.577929 0.569772 0.000000
C243  C     C_3   0.995263 0.347233 0.510264 0.000000
C244  C     C_3   0.980193 0.300253 0.490738 0.000000
C245  C     C_3   0.971078 0.317578 0.446171 0.000000
C246  C     C_R   0.996832 0.250799 0.492284 0.000000
N45   N     N_R   0.014725 0.236242 0.458381 0.000000
C247  C     C_R   0.033784 0.215349 0.483207 0.000000
C248  C     C_R   0.055514 0.190132 0.468158 0.000000
C249  C     C_R   0.074439 0.177056 0.498660 0.000000
C250  C     C_R   0.070436 0.186273 0.543938 0.000000
C251  C     C_R   0.046579 0.204479 0.558827 0.000000
C252  C     C_R   0.028453 0.218382 0.527570 0.000000
N46   N     N_R   0.003841 0.233753 0.534923 0.000000
C253  C     C_2   0.091430 0.176819 0.575687 0.000000
O45   O     O_2   0.111021 0.153517 0.563528 0.000000
O46   O     O_2   0.089810 0.196496 0.617759 0.000000
H243  H     H_    0.983945 0.384618 0.507218 0.000000
H244  H     H_    0.999161 0.341742 0.545636 0.000000
H245  H     H_    0.013975 0.350875 0.492614 0.000000
H246  H     H_    0.962647 0.292713 0.509815 0.000000
H247  H     H_    0.973498 0.285008 0.421982 0.000000
H248  H     H_    0.950483 0.329751 0.448337 0.000000
H249  H     H_    0.981901 0.353219 0.437036 0.000000
H250  H     H_    0.058140 0.183610 0.433121 0.000000
H251  H     H_    0.092706 0.161349 0.486772 0.000000
H252  H     H_    0.042447 0.209484 0.593734 0.000000
H253  H     H_    0.104293 0.192536 0.637805 0.000000
C254  C     C_3   0.973223 0.169889 0.718621 0.000000
C255  C     C_3   0.989285 0.217119 0.733368 0.000000
C256  C     C_3   0.015968 0.195086 0.742112 0.000000
C257  C     C_R   0.989780 0.264196 0.701996 0.000000
N47   N     N_R   0.997002 0.259950 0.657009 0.000000
C258  C     C_R   0.009507 0.306600 0.652000 0.000000
C259  C     C_R   0.024845 0.320601 0.617190 0.000000
C260  C     C_R   0.039091 0.366894 0.620769 0.000000
C261  C     C_R   0.038798 0.397663 0.659890 0.000000
C262  C     C_R   0.023037 0.383103 0.694828 0.000000
C263  C     C_R   0.007753 0.338534 0.689426 0.000000
N48   N     N_R   0.993477 0.315138 0.720886 0.000000
C264  C     C_2   0.056078 0.443860 0.664486 0.000000
O47   O     O_2   0.058830 0.466835 0.700495 0.000000
O48   O     O_2   0.069542 0.460293 0.629114 0.000000
H254  H     H_    0.978705 0.158672 0.684437 0.000000
H255  H     H_    0.976697 0.135931 0.740790 0.000000
H256  H     H_    0.952527 0.177917 0.721654 0.000000
H257  H     H_    0.982105 0.232108 0.766095 0.000000
H258  H     H_    0.019526 0.195286 0.778296 0.000000
H259  H     H_    0.017046 0.152428 0.732821 0.000000
H260  H     H_    0.030657 0.217606 0.723804 0.000000
H261  H     H_    0.026776 0.295774 0.588143 0.000000
H262  H     H_    0.051476 0.377175 0.593407 0.000000
H263  H     H_    0.023028 0.405072 0.725968 0.000000
H264  H     H_    0.081079 0.490389 0.632348 0.000000
C265  C     C_3   0.459805 0.186613 0.487022 0.000000
C266  C     C_3   0.468237 0.212047 0.529829 0.000000
C267  C     C_3   0.458246 0.202982 0.576172 0.000000
C268  C     C_R   0.494583 0.204115 0.533895 0.000000
N49   N     N_R   0.504372 0.153165 0.538391 0.000000
C269  C     C_R   0.523777 0.163570 0.567996 0.000000
C270  C     C_R   0.535861 0.128224 0.595104 0.000000
C271  C     C_R   0.553070 0.147607 0.627051 0.000000
C272  C     C_R   0.557012 0.202369 0.633484 0.000000
C273  C     C_R   0.543048 0.237875 0.608172 0.000000
C274  C     C_R   0.526184 0.217640 0.576653 0.000000
N50   N     N_R   0.506883 0.244417 0.556903 0.000000
C275  C     C_2   0.574641 0.223922 0.668228 0.000000
O49   O     O_2   0.582301 0.269692 0.665811 0.000000
O50   O     O_2   0.581905 0.195059 0.703481 0.000000
H265  H     H_    0.439203 0.180668 0.484333 0.000000
H266  H     H_    0.465074 0.215178 0.462134 0.000000
H267  H     H_    0.471447 0.151263 0.478011 0.000000
H268  H     H_    0.466998 0.253369 0.526042 0.000000
H269  H     H_    0.456865 0.241774 0.593484 0.000000
H270  H     H_    0.439743 0.184892 0.579169 0.000000
H271  H     H_    0.472278 0.179991 0.595422 0.000000
H272  H     H_    0.530316 0.087129 0.594799 0.000000
H273  H     H_    0.562933 0.119119 0.647400 0.000000
H274  H     H_    0.543957 0.280328 0.614877 0.000000
H275  H     H_    0.574703 0.160591 0.709545 0.000000
C276  C     C_3   0.427786 0.380255 0.654793 0.000000
C277  C     C_3   0.429036 0.325644 0.632645 0.000000
C278  C     C_3   0.409399 0.285066 0.647683 0.000000
C279  C     C_R   0.427879 0.332409 0.584216 0.000000
N51   N     N_R   0.405210 0.335708 0.558735 0.000000
C280  C     C_R   0.415855 0.337869 0.517414 0.000000
C281  C     C_R   0.403631 0.327250 0.478453 0.000000
C282  C     C_R   0.416999 0.312142 0.440900 0.000000
C283  C     C_R   0.443280 0.308826 0.443197 0.000000
C284  C     C_R   0.455974 0.326322 0.480775 0.000000
C285  C     C_R   0.441947 0.337307 0.518386 0.000000
N52   N     N_R   0.450651 0.332310 0.559937 0.000000
C286  C     C_2   0.457729 0.285545 0.406562 0.000000
O51   O     O_2   0.446282 0.261250 0.377010 0.000000
O52   O     O_2   0.483507 0.292351 0.404603 0.000000
H276  H     H_    0.432736 0.409876 0.629685 0.000000
H277  H     H_    0.408617 0.387911 0.669342 0.000000
H278  H     H_    0.443117 0.384720 0.680179 0.000000
H279  H     H_    0.448241 0.309678 0.640427 0.000000
H280  H     H_    0.417916 0.244685 0.643127 0.000000
H281  H     H_    0.404543 0.289903 0.683080 0.000000
H282  H     H_    0.391600 0.287059 0.627678 0.000000
H283  H     H_    0.383476 0.325680 0.479396 0.000000
H284  H     H_    0.406657 0.299414 0.411131 0.000000
H285  H     H_    0.476218 0.320158 0.482573 0.000000
H286  H     H_    0.493242 0.282024 0.378360 0.000000
C287  C     C_3   0.562175 0.333475 0.510168 0.000000
C288  C     C_3   0.542473 0.334352 0.472709 0.000000
C289  C     C_3   0.532299 0.279202 0.463525 0.000000
C290  C     C_R   0.522111 0.375091 0.483055 0.000000
N53   N     N_R   0.506209 0.374735 0.520701 0.000000
C291  C     C_R   0.496683 0.424637 0.521206 0.000000
C292  C     C_R   0.479504 0.448130 0.550548 0.000000
C293  C     C_R   0.478889 0.503330 0.552338 0.000000
C294  C     C_R   0.497157 0.531199 0.528515 0.000000
C295  C     C_R   0.511178 0.505992 0.495996 0.000000
C296  C     C_R   0.507633 0.453376 0.488820 0.000000
N54   N     N_R   0.521792 0.423062 0.460971 0.000000
C297  C     C_2   0.503925 0.586046 0.538658 0.000000
O53   O     O_2   0.502199 0.603915 0.576359 0.000000
O54   O     O_2   0.513236 0.616617 0.506588 0.000000
H287  H     H_    0.554057 0.313051 0.539114 0.000000
H288  H     H_    0.579844 0.312091 0.498571 0.000000
H289  H     H_    0.567333 0.374963 0.520304 0.000000
H290  H     H_    0.552267 0.345904 0.442164 0.000000
H291  H     H_    0.533160 0.270333 0.427161 0.000000
H292  H     H_    0.544975 0.250871 0.480870 0.000000
H293  H     H_    0.512339 0.275656 0.475306 0.000000
H294  H     H_    0.469034 0.425679 0.574651 0.000000
H295  H     H_    0.466206 0.523840 0.575545 0.000000
H296  H     H_    0.526905 0.525665 0.480714 0.000000
H297  H     H_    0.516677 0.653493 0.513465 0.000000
C298  C     C_3   0.263355 0.475026 0.264852 0.000000
C299  C     C_3   0.265935 0.478698 0.314182 0.000000
C300  C     C_3   0.240230 0.498770 0.331872 0.000000
C301  C     C_R   0.272819 0.426956 0.335258 0.000000
N55   N     N_R   0.256773 0.382339 0.328242 0.000000
C302  C     C_R   0.250308 0.372447 0.370994 0.000000
C303  C     C_R   0.232340 0.336395 0.385624 0.000000
C304  C     C_R   0.227035 0.333811 0.430153 0.000000
C305  C     C_R   0.238739 0.369108 0.459709 0.000000
C306  C     C_R   0.257586 0.403498 0.444681 0.000000
C307  C     C_R   0.264620 0.402161 0.400485 0.000000
N56   N     N_R   0.281731 0.433541 0.379091 0.000000
C308  C     C_2   0.230129 0.370748 0.506207 0.000000
O55   O     O_2   0.218381 0.333120 0.521030 0.000000
O56   O     O_2   0.233440 0.414971 0.531822 0.000000
H298  H     H_    0.281664 0.459697 0.251557 0.000000
H299  H     H_    0.246835 0.449291 0.256036 0.000000
H300  H     H_    0.259370 0.515177 0.252088 0.000000
H301  H     H_    0.281031 0.508418 0.323242 0.000000
H302  H     H_    0.236878 0.484723 0.365684 0.000000
H303  H     H_    0.239883 0.542956 0.331438 0.000000
H304  H     H_    0.224282 0.482765 0.311204 0.000000
H305  H     H_    0.222480 0.309794 0.363280 0.000000
H306  H     H_    0.212498 0.306220 0.441009 0.000000
H307  H     H_    0.265801 0.431791 0.466690 0.000000
H308  H     H_    0.226778 0.416265 0.561883 0.000000
C309  C     C_3   0.925254 0.355729 0.686092 0.000000
C310  C     C_3   0.916362 0.316860 0.718982 0.000000
C311  C     C_3   0.930075 0.265497 0.716446 0.000000
C312  C     C_R   0.918331 0.338314 0.764400 0.000000
N57   N     N_R   0.940691 0.349763 0.789593 0.000000
C313  C     C_R   0.929473 0.368067 0.827683 0.000000
C314  C     C_R   0.940193 0.393168 0.863518 0.000000
C315  C     C_R   0.925139 0.396103 0.901482 0.000000
C316  C     C_R   0.898295 0.391974 0.898422 0.000000
C317  C     C_R   0.887495 0.379641 0.858733 0.000000
C318  C     C_R   0.903477 0.364543 0.825683 0.000000
N58   N     N_R   0.895545 0.348712 0.786099 0.000000
C319  C     C_2   0.880414 0.400487 0.935117 0.000000
O57   O     O_2   0.888169 0.405883 0.972983 0.000000
O58   O     O_2   0.855019 0.403242 0.927132 0.000000
H309  H     H_    0.946336 0.352421 0.680399 0.000000
H310  H     H_    0.914418 0.345898 0.656034 0.000000
H311  H     H_    0.918698 0.395925 0.696945 0.000000
H312  H     H_    0.895801 0.309210 0.711799 0.000000
H313  H     H_    0.916992 0.234663 0.728647 0.000000
H314  H     H_    0.936730 0.256359 0.682167 0.000000
H315  H     H_    0.945848 0.268631 0.740608 0.000000
H316  H     H_    0.960148 0.404567 0.863040 0.000000
H317  H     H_    0.934397 0.406321 0.932263 0.000000
H318  H     H_    0.867015 0.378797 0.854399 0.000000
H319  H     H_    0.843751 0.410508 0.951795 0.000000
C320  C     C_3   0.964198 0.252575 0.914134 0.000000
C321  C     C_3   0.976079 0.301178 0.895266 0.000000
C322  C     C_3   0.982876 0.345052 0.928842 0.000000
C323  C     C_R   0.999597 0.287535 0.872387 0.000000
N59   N     N_R   0.019674 0.259427 0.891327 0.000000
C324  C     C_R   0.036197 0.255022 0.856659 0.000000
C325  C     C_R   0.059715 0.229387 0.855169 0.000000
C326  C     C_R   0.075232 0.235358 0.818155 0.000000
C327  C     C_R   0.067012 0.266738 0.783329 0.000000
C328  C     C_R   0.042741 0.289877 0.784703 0.000000
C329  C     C_R   0.027457 0.283290 0.821434 0.000000
N60   N     N_R   0.003717 0.303908 0.829656 0.000000
C330  C     C_2   0.084376 0.278505 0.746232 0.000000
O59   O     O_2   0.107461 0.269076 0.749154 0.000000
O60   O     O_2   0.075047 0.301322 0.709385 0.000000
H320  H     H_    0.979601 0.225604 0.923851 0.000000
H321  H     H_    0.951754 0.263812 0.942447 0.000000
H322  H     H_    0.952647 0.232109 0.887763 0.000000
H323  H     H_    0.962979 0.312305 0.869160 0.000000
H324  H     H_    0.986718 0.383108 0.912606 0.000000
H325  H     H_    0.967577 0.350565 0.954231 0.000000
H326  H     H_    0.001821 0.335005 0.943055 0.000000
H327  H     H_    0.066375 0.206939 0.882658 0.000000
H328  H     H_    0.094127 0.216805 0.817381 0.000000
H329  H     H_    0.036507 0.314269 0.758232 0.000000
H330  H     H_    0.086529 0.309434 0.685188 0.000000
C331  C     C_3   0.815539 0.323604 0.097426 0.000000
C332  C     C_3   0.811718 0.338038 0.049815 0.000000
C333  C     C_3   0.837379 0.341356 0.025205 0.000000
C334  C     C_R   0.790363 0.308176 0.025539 0.000000
N61   N     N_R   0.794154 0.275432 0.987392 0.000000
C335  C     C_R   0.771752 0.281328 0.965638 0.000000
C336  C     C_R   0.764769 0.256049 0.926468 0.000000
C337  C     C_R   0.740969 0.268055 0.908447 0.000000
C338  C     C_R   0.726235 0.309411 0.926910 0.000000
C339  C     C_R   0.734035 0.334793 0.966425 0.000000
C340  C     C_R   0.755684 0.315700 0.987858 0.000000
N62   N     N_R   0.765613 0.329645 0.028531 0.000000
C341  C     C_2   0.701936 0.324737 0.905390 0.000000
O61   O     O_2   0.695351 0.303151 0.870251 0.000000
O62   O     O_2   0.686458 0.361784 0.924742 0.000000
H331  H     H_    0.797850 0.305267 0.110749 0.000000
H332  H     H_    0.832408 0.297888 0.100504 0.000000
H333  H     H_    0.820606 0.360647 0.116135 0.000000
H334  H     H_    0.804515 0.379150 0.053521 0.000000
H335  H     H_    0.835274 0.330856 0.989432 0.000000
H336  H     H_    0.844951 0.382410 0.029266 0.000000
H337  H     H_    0.852437 0.316174 0.039693 0.000000
H338  H     H_    0.777198 0.226291 0.910975 0.000000
H339  H     H_    0.734839 0.247086 0.878284 0.000000
H340  H     H_    0.722522 0.366577 0.980908 0.000000
H341  H     H_    0.670171 0.370154 0.910821 0.000000
C342  C     C_3   0.108326 0.977513 0.027302 0.000000
C343  C     C_3   0.082911 0.967136 0.050179 0.000000
C344  C     C_3   0.070170 0.021092 0.056792 0.000000
C345  C     C_R   0.068160 0.921100 0.026938 0.000000
N63   N     N_R   0.057258 0.929114 0.984586 0.000000
C346  C     C_R   0.071617 0.894281 0.959689 0.000000
C347  C     C_R   0.077741 0.898657 0.915576 0.000000
C348  C     C_R   0.098010 0.869370 0.897755 0.000000
C349  C     C_R   0.112599 0.836778 0.924580 0.000000
C350  C     C_R   0.105823 0.831414 0.968750 0.000000
C351  C     C_R   0.085547 0.860895 0.985690 0.000000
N64   N     N_R   0.081602 0.872633 0.029022 0.000000
C352  C     C_2   0.137213 0.814779 0.908289 0.000000
O63   O     O_2   0.143297 0.818967 0.869327 0.000000
O64   O     O_2   0.154429 0.795357 0.937363 0.000000
H342  H     H_    0.110332 0.954654 0.995543 0.000000
H343  H     H_    0.110523 0.020267 0.020165 0.000000
H344  H     H_    0.123932 0.967348 0.050780 0.000000
H345  H     H_    0.088689 0.954126 0.083291 0.000000
H346  H     H_    0.054948 0.019362 0.081224 0.000000
H347  H     H_    0.084198 0.050141 0.071375 0.000000
H348  H     H_    0.062810 0.036124 0.025382 0.000000
H349  H     H_    0.069388 0.928861 0.896475 0.000000
H350  H     H_    0.103672 0.876113 0.863759 0.000000
H351  H     H_    0.117347 0.807716 0.990372 0.000000
H352  H     H_    0.171852 0.787609 0.927789 0.000000
C353  C     C_3   0.977374 0.107451 0.915249 0.000000
C354  C     C_3   0.004286 0.098258 0.899113 0.000000
C355  C     C_3   0.010207 0.133306 0.860476 0.000000
C356  C     C_R   0.023529 0.101851 0.936219 0.000000
N65   N     N_R   0.038003 0.148066 0.943884 0.000000
C357  C     C_R   0.061955 0.128099 0.949099 0.000000
C358  C     C_R   0.084842 0.155767 0.949615 0.000000
C359  C     C_R   0.107501 0.127068 0.943933 0.000000
C360  C     C_R   0.106838 0.071797 0.938277 0.000000
C361  C     C_R   0.083737 0.044602 0.942880 0.000000
C362  C     C_R   0.061415 0.073659 0.948224 0.000000
N66   N     N_R   0.036918 0.055310 0.944659 0.000000
C363  C     C_2   0.130184 0.042487 0.924333 0.000000
O65   O     O_2   0.150355 0.066303 0.918516 0.000000
O66   O     O_2   0.129148 0.989500 0.915799 0.000000
H353  H     H_    0.976110 0.144040 0.935860 0.000000
H354  H     H_    0.963510 0.108705 0.887085 0.000000
H355  H     H_    0.973532 0.073872 0.936431 0.000000
H356  H     H_    0.005890 0.057294 0.885336 0.000000
H357  H     H_    0.031365 0.136182 0.855735 0.000000
H358  H     H_    0.001699 0.114910 0.829754 0.000000
H359  H     H_    0.000949 0.172493 0.865926 0.000000
H360  H     H_    0.085207 0.198837 0.951206 0.000000
H361  H     H_    0.125491 0.148545 0.941334 0.000000
H362  H     H_    0.082881 0.002168 0.938437 0.000000
H363  H     H_    0.144356 0.970402 0.905540 0.000000
C364  C     C_3   0.073628 0.204279 0.061154 0.000000
C365  C     C_3   0.056452 0.253326 0.063434 0.000000
C366  C     C_3   0.055880 0.280127 0.108101 0.000000
C367  C     C_R   0.065639 0.289746 0.030541 0.000000
N67   N     N_R   0.082775 0.331858 0.039973 0.000000
C368  C     C_R   0.085119 0.350695 0.999103 0.000000
C369  C     C_R   0.101474 0.389457 0.989124 0.000000
C370  C     C_R   0.104846 0.403404 0.946184 0.000000
C371  C     C_R   0.091552 0.376325 0.912990 0.000000
C372  C     C_R   0.073581 0.337358 0.923610 0.000000
C373  C     C_R   0.071073 0.323289 0.967569 0.000000
N68   N     N_R   0.057703 0.283069 0.986259 0.000000
C374  C     C_2   0.099253 0.385642 0.867172 0.000000
O67   O     O_2   0.113189 0.423241 0.859014 0.000000
O68   O     O_2   0.093479 0.350060 0.834603 0.000000
H364  H     H_    0.068908 0.176322 0.087875 0.000000
H365  H     H_    0.071074 0.183175 0.029072 0.000000
H366  H     H_    0.094033 0.216732 0.061838 0.000000
H367  H     H_    0.036249 0.245031 0.055034 0.000000
H368  H     H_    0.039039 0.307043 0.108115 0.000000
H369  H     H_    0.053461 0.250145 0.133813 0.000000
H370  H     H_    0.073593 0.302382 0.114455 0.000000
H371  H     H_    0.113726 0.402044 0.014801 0.000000
H372  H     H_    0.119222 0.432745 0.938987 0.000000
H373  H     H_    0.062752 0.318852 0.897866 0.000000
H374  H     H_    0.100576 0.355064 0.805327 0.000000
C375  C     C_3   0.847522 0.093158 0.999246 0.000000
C376  C     C_3   0.844476 0.093164 0.951828 0.000000
C377  C     C_3   0.859363 0.048685 0.929660 0.000000
C378  C     C_R   0.816600 0.092524 0.945346 0.000000
N69   N     N_R   0.801288 0.046793 0.948454 0.000000
C379  C     C_R   0.777841 0.068463 0.952869 0.000000
C380  C     C_R   0.755494 0.040689 0.956720 0.000000
C381  C     C_R   0.733360 0.067896 0.966631 0.000000
C382  C     C_R   0.734853 0.121279 0.978080 0.000000
C383  C     C_R   0.757906 0.149283 0.975048 0.000000
C384  C     C_R   0.779037 0.122955 0.957279 0.000000
N70   N     N_R   0.803630 0.140669 0.951117 0.000000
C385  C     C_2   0.712503 0.145106 0.999215 0.000000
O69   O     O_2   0.690830 0.131842 0.987391 0.000000
O70   O     O_2   0.715723 0.176579 0.035440 0.000000
H375  H     H_    0.828667 0.097606 0.014911 0.000000
H376  H     H_    0.861131 0.062372 0.007899 0.000000
H377  H     H_    0.856300 0.129753 0.006403 0.000000
H378  H     H_    0.852417 0.131893 0.944184 0.000000
H379  H     H_    0.860927 0.055203 0.893945 0.000000
H380  H     H_    0.879185 0.046899 0.943153 0.000000
H381  H     H_    0.849107 0.011896 0.935270 0.000000
H382  H     H_    0.755198 0.998694 0.953518 0.000000
H383  H     H_    0.715608 0.046009 0.970894 0.000000
H384  H     H_    0.759280 0.188680 0.989472 0.000000
H385  H     H_    0.700507 0.187441 0.051456 0.000000
C386  C     C_3   0.800235 0.900045 0.066338 0.000000
C387  C     C_3   0.771921 0.909215 0.062910 0.000000
C388  C     C_3   0.760314 0.963815 0.073476 0.000000
C389  C     C_R   0.765091 0.890859 0.019334 0.000000
N71   N     N_R   0.772778 0.914112 0.979802 0.000000
C390  C     C_R   0.754604 0.893995 0.951909 0.000000
C391  C     C_R   0.749488 0.910754 0.909633 0.000000
C392  C     C_R   0.728241 0.890276 0.887378 0.000000
C393  C     C_R   0.712861 0.852411 0.906940 0.000000
C394  C     C_R   0.718864 0.834274 0.949069 0.000000
C395  C     C_R   0.739262 0.857227 0.972489 0.000000
N72   N     N_R   0.745903 0.853251 0.016446 0.000000
C396  C     C_2   0.689191 0.834502 0.883945 0.000000
O71   O     O_2   0.686146 0.842965 0.844455 0.000000
O72   O     O_2   0.670128 0.811268 0.906750 0.000000
H386  H     H_    0.807208 0.903231 0.032708 0.000000
H387  H     H_    0.809935 0.927636 0.089973 0.000000
H388  H     H_    0.804208 0.857936 0.073658 0.000000
H389  H     H_    0.761189 0.882111 0.082821 0.000000
H390  H     H_    0.740982 0.957705 0.088173 0.000000
H391  H     H_    0.771797 0.986246 0.098443 0.000000
H392  H     H_    0.757211 0.986617 0.042921 0.000000
H393  H     H_    0.761323 0.940622 0.894443 0.000000
H394  H     H_    0.723558 0.904957 0.854801 0.000000
H395  H     H_    0.706479 0.805552 0.963439 0.000000
H396  H     H_    0.654353 0.800638 0.891689 0.000000
C397  C     C_3   0.778287 0.074425 0.453636 0.000000
C398  C     C_3   0.784485 0.070929 0.404624 0.000000
C399  C     C_3   0.772605 0.116239 0.384204 0.000000
C400  C     C_R   0.812640 0.073476 0.395883 0.000000
N73   N     N_R   0.828218 0.119870 0.393162 0.000000
C401  C     C_R   0.851970 0.095430 0.391463 0.000000
C402  C     C_R   0.875986 0.114166 0.380644 0.000000
C403  C     C_R   0.896236 0.077886 0.376863 0.000000
C404  C     C_R   0.894064 0.027617 0.394767 0.000000
C405  C     C_R   0.869871 0.009188 0.402677 0.000000
C406  C     C_R   0.849866 0.041607 0.394318 0.000000
N74   N     N_R   0.825791 0.025347 0.391364 0.000000
C407  C     C_2   0.915911 0.989992 0.397676 0.000000
O73   O     O_2   0.934163 0.994982 0.372900 0.000000
O74   O     O_2   0.912230 0.942367 0.415623 0.000000
H397  H     H_    0.779108 0.115986 0.466935 0.000000
H398  H     H_    0.758415 0.059507 0.458973 0.000000
H399  H     H_    0.792448 0.049674 0.471045 0.000000
H400  H     H_    0.776577 0.033396 0.390407 0.000000
H401  H     H_    0.752129 0.119407 0.394460 0.000000
H402  H     H_    0.784034 0.147493 0.399957 0.000000
H403  H     H_    0.775789 0.114863 0.347888 0.000000
H404  H     H_    0.879709 0.154751 0.373038 0.000000
H405  H     H_    0.914342 0.091016 0.363409 0.000000
H406  H     H_    0.866104 0.968956 0.411119 0.000000
H407  H     H_    0.923640 0.913220 0.407325 0.000000
C408  C     C_3   0.776774 0.175085 0.248547 0.000000
C409  C     C_3   0.791412 0.205125 0.284988 0.000000
C410  C     C_3   0.805752 0.254707 0.270983 0.000000
C411  C     C_R   0.773785 0.221615 0.320580 0.000000
N75   N     N_R   0.747176 0.226196 0.314711 0.000000
C412  C     C_R   0.739177 0.233980 0.357160 0.000000
C413  C     C_R   0.714097 0.235798 0.372180 0.000000
C414  C     C_R   0.709496 0.231834 0.417158 0.000000
C415  C     C_R   0.729736 0.222774 0.446223 0.000000
C416  C     C_R   0.754824 0.221766 0.430447 0.000000
C417  C     C_R   0.759627 0.232357 0.386350 0.000000
N76   N     N_R   0.782519 0.226193 0.364216 0.000000
C418  C     C_2   0.724512 0.211235 0.493054 0.000000
O75   O     O_2   0.702489 0.213752 0.507367 0.000000
O76   O     O_2   0.743965 0.197416 0.520390 0.000000
H408  H     H_    0.763782 0.146398 0.264246 0.000000
H409  H     H_    0.765677 0.202701 0.228362 0.000000
H410  H     H_    0.789770 0.150929 0.227036 0.000000
H411  H     H_    0.804445 0.176380 0.299616 0.000000
H412  H     H_    0.805799 0.284162 0.299206 0.000000
H413  H     H_    0.825944 0.247382 0.262018 0.000000
H414  H     H_    0.796585 0.272037 0.241983 0.000000
H415  H     H_    0.697935 0.237068 0.350017 0.000000
H416  H     H_    0.689771 0.231632 0.428661 0.000000
H417  H     H_    0.770042 0.207517 0.451359 0.000000
H418  H     H_    0.740486 0.189904 0.551194 0.000000
C419  C     C_3   0.002600 0.823614 0.388519 0.000000
C420  C     C_3   0.980216 0.819493 0.356128 0.000000
C421  C     C_3   0.956126 0.794610 0.375796 0.000000
C422  C     C_R   0.973377 0.870111 0.333795 0.000000
N77   N     N_R   0.987641 0.916867 0.343875 0.000000
C423  C     C_R   0.976932 0.949700 0.315469 0.000000
C424  C     C_R   0.984294 0.000667 0.310712 0.000000
C425  C     C_R   0.966764 0.034960 0.293902 0.000000
C426  C     C_R   0.944788 0.014395 0.274117 0.000000
C427  C     C_R   0.942011 0.959541 0.266719 0.000000
C428  C     C_R   0.957113 0.926992 0.291489 0.000000
N78   N     N_R   0.953397 0.874682 0.300613 0.000000
C429  C     C_2   0.925736 0.051335 0.258128 0.000000
O77   O     O_2   0.930966 0.098174 0.255869 0.000000
O78   O     O_2   0.902541 0.033616 0.245570 0.000000
H419  H     H_    0.002902 0.861667 0.406682 0.000000
H420  H     H_    0.002244 0.789741 0.411367 0.000000
H421  H     H_    0.020855 0.819800 0.369633 0.000000
H422  H     H_    0.989758 0.793848 0.331872 0.000000
H423  H     H_    0.946853 0.822880 0.399763 0.000000
H424  H     H_    0.941624 0.786333 0.349322 0.000000
H425  H     H_    0.961054 0.756676 0.392000 0.000000
H426  H     H_    0.003512 0.012778 0.318223 0.000000
H427  H     H_    0.971059 0.076780 0.294896 0.000000
H428  H     H_    0.926478 0.942774 0.247503 0.000000
H429  H     H_    0.890703 0.055108 0.229483 0.000000
C430  C     C_3   0.033976 0.915707 0.261667 0.000000
C431  C     C_3   0.051173 0.890838 0.295152 0.000000
C432  C     C_3   0.067601 0.846064 0.275240 0.000000
C433  C     C_R   0.065455 0.931528 0.322999 0.000000
N79   N     N_R   0.091961 0.942340 0.318818 0.000000
C434  C     C_R   0.098830 0.949680 0.361973 0.000000
C435  C     C_R   0.123294 0.954990 0.379242 0.000000
C436  C     C_R   0.125980 0.961893 0.424883 0.000000
C437  C     C_R   0.104545 0.968411 0.452044 0.000000
C438  C     C_R   0.080050 0.963925 0.433730 0.000000
C439  C     C_R   0.077637 0.950506 0.389149 0.000000
N80   N     N_R   0.055735 0.941772 0.365448 0.000000
C440  C     C_2   0.107908 0.981814 0.499674 0.000000
O79   O     O_2   0.129536 0.986646 0.515532 0.000000
O80   O     O_2   0.087170 0.988735 0.526177 0.000000
H430  H     H_    0.035292 0.959421 0.266432 0.000000
H431  H     H_    0.038839 0.901908 0.227526 0.000000
H432  H     H_    0.014211 0.901997 0.268358 0.000000
H433  H     H_    0.037860 0.871490 0.318270 0.000000
H434  H     H_    0.072549 0.818316 0.301830 0.000000
H435  H     H_    0.056382 0.823334 0.249550 0.000000
H436  H     H_    0.085507 0.860860 0.260608 0.000000
H437  H     H_    0.140129 0.951471 0.358574 0.000000
H438  H     H_    0.144943 0.963827 0.439281 0.000000
H439  H     H_    0.063446 0.976525 0.452627 0.000000
H440  H     H_    0.089475 0.997283 0.557539 0.000000
C441  C     C_3   0.071459 0.080023 0.409321 0.000000
C442  C     C_3   0.057956 0.093408 0.366857 0.000000
C443  C     C_3   0.064300 0.059326 0.326205 0.000000
C444  C     C_R   0.030481 0.092610 0.374826 0.000000
N81   N     N_R   0.015960 0.047342 0.385585 0.000000
C445  C     C_R   0.993759 0.071912 0.395967 0.000000
C446  C     C_R   0.972474 0.050033 0.412103 0.000000
C447  C     C_R   0.952741 0.085248 0.421317 0.000000
C448  C     C_R   0.955283 0.139711 0.420048 0.000000
C449  C     C_R   0.977498 0.160399 0.406919 0.000000
C450  C     C_R   0.995264 0.125746 0.392602 0.000000
N82   N     N_R   0.017722 0.141076 0.378995 0.000000
C451  C     C_2   0.934768 0.176375 0.430774 0.000000
O81   O     O_2   0.912860 0.160644 0.432882 0.000000
O82   O     O_2   0.940394 0.226685 0.443092 0.000000
H441  H     H_    0.057525 0.068534 0.435125 0.000000
H442  H     H_    0.085299 0.049194 0.402203 0.000000
H443  H     H_    0.082902 0.114319 0.421476 0.000000
H444  H     H_    0.062954 0.134668 0.360083 0.000000
H445  H     H_    0.062234 0.083846 0.296806 0.000000
H446  H     H_    0.084317 0.044295 0.326833 0.000000
H447  H     H_    0.049811 0.027649 0.322183 0.000000
H448  H     H_    0.971470 0.007822 0.417981 0.000000
H449  H     H_    0.935163 0.070182 0.430434 0.000000
H450  H     H_    0.979914 0.202133 0.403576 0.000000
H451  H     H_    0.927827 0.250629 0.456361 0.000000
C452  C     C_3   0.152172 0.655709 0.064905 0.000000
C453  C     C_3   0.141052 0.699515 0.093702 0.000000
C454  C     C_3   0.143253 0.681828 0.141635 0.000000
C455  C     C_R   0.154113 0.750666 0.081880 0.000000
N83   N     N_R   0.181073 0.754409 0.074657 0.000000
C456  C     C_R   0.181910 0.798297 0.049637 0.000000
C457  C     C_R   0.203905 0.823609 0.036160 0.000000
C458  C     C_R   0.201860 0.869781 0.013136 0.000000
C459  C     C_R   0.178048 0.893296 0.007101 0.000000
C460  C     C_R   0.155894 0.869974 0.024048 0.000000
C461  C     C_R   0.157965 0.821724 0.045118 0.000000
N84   N     N_R   0.139319 0.794471 0.067195 0.000000
C462  C     C_2   0.177566 0.945609 0.986758 0.000000
O83   O     O_2   0.193129 0.955752 0.957779 0.000000
O84   O     O_2   0.162647 0.984798 0.004099 0.000000
H452  H     H_    0.169813 0.640443 0.080928 0.000000
H453  H     H_    0.137895 0.623134 0.061622 0.000000
H454  H     H_    0.157290 0.671363 0.032047 0.000000
H455  H     H_    0.120393 0.703181 0.085056 0.000000
H456  H     H_    0.133978 0.710064 0.165396 0.000000
H457  H     H_    0.132848 0.643455 0.144274 0.000000
H458  H     H_    0.163606 0.674576 0.150857 0.000000
H459  H     H_    0.222608 0.811186 0.046692 0.000000
H460  H     H_    0.219283 0.889741 0.003047 0.000000
H461  H     H_    0.137523 0.889044 0.020826 0.000000
H462  H     H_    0.164405 0.020727 0.993863 0.000000
C463  C     C_3   0.194473 0.850612 0.140757 0.000000
C464  C     C_3   0.199078 0.825089 0.183828 0.000000
C465  C     C_3   0.185843 0.776361 0.200617 0.000000
C466  C     C_R   0.225143 0.810580 0.180761 0.000000
N85   N     N_R   0.234349 0.767285 0.154749 0.000000
C467  C     C_R   0.257135 0.760511 0.176368 0.000000
C468  C     C_R   0.273072 0.716913 0.177913 0.000000
C469  C     C_R   0.297651 0.726672 0.194101 0.000000
C470  C     C_R   0.303490 0.775461 0.215317 0.000000
C471  C     C_R   0.284640 0.810661 0.225913 0.000000
C472  C     C_R   0.262054 0.802437 0.205304 0.000000
N86   N     N_R   0.241612 0.832339 0.211911 0.000000
C473  C     C_2   0.329014 0.795737 0.221046 0.000000
O85   O     O_2   0.333522 0.841620 0.211897 0.000000
O86   O     O_2   0.348087 0.764528 0.233582 0.000000
H463  H     H_    0.177233 0.836579 0.125055 0.000000
H464  H     H_    0.193369 0.893815 0.147167 0.000000
H465  H     H_    0.211629 0.844288 0.119598 0.000000
H466  H     H_    0.196549 0.855847 0.208847 0.000000
H467  H     H_    0.199026 0.757310 0.224643 0.000000
H468  H     H_    0.168595 0.787463 0.220467 0.000000
H469  H     H_    0.182001 0.748554 0.172541 0.000000
H470  H     H_    0.268343 0.679245 0.161462 0.000000
H471  H     H_    0.312332 0.698599 0.184731 0.000000
H472  H     H_    0.288112 0.846416 0.245935 0.000000
H473  H     H_    0.365220 0.778830 0.231181 0.000000
C474  C     C_3   0.451809 0.406085 0.863006 0.000000
C475  C     C_3   0.475661 0.386803 0.883448 0.000000
C476  C     C_3   0.479363 0.327982 0.871324 0.000000
C477  C     C_R   0.498256 0.419396 0.869705 0.000000
N87   N     N_R   0.504690 0.421528 0.824404 0.000000
C478  C     C_R   0.529704 0.405823 0.825407 0.000000
C479  C     C_R   0.544748 0.390047 0.789761 0.000000
C480  C     C_R   0.568380 0.366596 0.797670 0.000000
C481  C     C_R   0.575962 0.355717 0.840858 0.000000
C482  C     C_R   0.559936 0.369563 0.876416 0.000000
C483  C     C_R   0.537918 0.398870 0.868160 0.000000
N88   N     N_R   0.519365 0.414073 0.897532 0.000000
C484  C     C_2   0.601051 0.330107 0.848533 0.000000
O87   O     O_2   0.613914 0.313455 0.817079 0.000000
O88   O     O_2   0.610654 0.327354 0.890068 0.000000
H474  H     H_    0.451242 0.388267 0.830028 0.000000
H475  H     H_    0.434772 0.393507 0.882123 0.000000
H476  H     H_    0.453770 0.449236 0.861061 0.000000
H477  H     H_    0.473384 0.389380 0.919676 0.000000
H478  H     H_    0.499522 0.316082 0.878070 0.000000
H479  H     H_    0.466054 0.304191 0.891700 0.000000
H480  H     H_    0.475233 0.318543 0.835939 0.000000
H481  H     H_    0.538213 0.394493 0.756154 0.000000
H482  H     H_    0.580390 0.355151 0.769549 0.000000
H483  H     H_    0.564342 0.356809 0.909613 0.000000
H484  H     H_    0.627791 0.312966 0.894437 0.000000
C485  C     C_3   0.533411 0.468182 0.669218 0.000000
C486  C     C_3   0.519623 0.431934 0.637319 0.000000
C487  C     C_3   0.540638 0.399935 0.613239 0.000000
C488  C     C_R   0.500899 0.394888 0.659222 0.000000
N89   N     N_R   0.496853 0.346671 0.636934 0.000000
C489  C     C_R   0.496130 0.312468 0.670741 0.000000
C490  C     C_R   0.494419 0.258096 0.668120 0.000000
C491  C     C_R   0.497421 0.229333 0.706179 0.000000
C492  C     C_R   0.501956 0.255453 0.746668 0.000000
C493  C     C_R   0.501586 0.310724 0.749269 0.000000
C494  C     C_R   0.497941 0.338700 0.710825 0.000000
N90   N     N_R   0.498168 0.392121 0.705738 0.000000
C495  C     C_2   0.507720 0.224430 0.786220 0.000000
O89   O     O_2   0.503792 0.176487 0.785765 0.000000
O90   O     O_2   0.518640 0.248164 0.822347 0.000000
H485  H     H_    0.541869 0.445021 0.696306 0.000000
H486  H     H_    0.549067 0.489446 0.651982 0.000000
H487  H     H_    0.519214 0.497771 0.679938 0.000000
H488  H     H_    0.509668 0.457552 0.614029 0.000000
H489  H     H_    0.532583 0.370841 0.589004 0.000000
H490  H     H_    0.553296 0.427179 0.594766 0.000000
H491  H     H_    0.552443 0.378301 0.637858 0.000000
H492  H     H_    0.492078 0.237742 0.637144 0.000000
H493  H     H_    0.497420 0.186302 0.703469 0.000000
H494  H     H_    0.503679 0.330977 0.780795 0.000000
H495  H     H_    0.522898 0.227430 0.848022 0.000000
C496  C     C_3   0.491138 0.999790 0.159975 0.000000
C497  C     C_3   0.503205 0.052925 0.168801 0.000000
C498  C     C_3   0.505309 0.085491 0.127344 0.000000
C499  C     C_R   0.489610 0.082167 0.205461 0.000000
N91   N     N_R   0.463583 0.100586 0.205103 0.000000
C500  C     C_R   0.463840 0.129973 0.243352 0.000000
C501  C     C_R   0.443714 0.154262 0.264426 0.000000
C502  C     C_R   0.447780 0.171886 0.307997 0.000000
C503  C     C_R   0.472505 0.171849 0.325938 0.000000
C504  C     C_R   0.493004 0.157197 0.300949 0.000000
C505  C     C_R   0.487502 0.130175 0.263116 0.000000
N92   N     N_R   0.503780 0.096593 0.243580 0.000000
C506  C     C_2   0.477017 0.173072 0.372884 0.000000
O91   O     O_2   0.461238 0.153716 0.397051 0.000000
O92   O     O_2   0.499742 0.189661 0.389309 0.000000
H496  H     H_    0.470365 0.004658 0.156748 0.000000
H497  H     H_    0.499299 0.978913 0.130133 0.000000
H498  H     H_    0.494982 0.977599 0.190158 0.000000
H499  H     H_    0.522951 0.045603 0.181104 0.000000
H500  H     H_    0.521409 0.114071 0.131323 0.000000
H501  H     H_    0.508943 0.059459 0.097525 0.000000
H502  H     H_    0.487515 0.108352 0.122961 0.000000
H503  H     H_    0.425209 0.155541 0.248362 0.000000
H504  H     H_    0.431743 0.184426 0.328497 0.000000
H505  H     H_    0.512269 0.156965 0.314444 0.000000
H506  H     H_    0.501186 0.195070 0.420910 0.000000
C507  C     C_3   0.383209 0.151703 0.309742 0.000000
C508  C     C_3   0.389068 0.097675 0.288539 0.000000
C509  C     C_3   0.378173 0.052830 0.314782 0.000000
C510  C     C_R   0.375920 0.099084 0.245356 0.000000
N93   N     N_R   0.348835 0.099700 0.243410 0.000000
C511  C     C_R   0.345442 0.101105 0.199102 0.000000
C512  C     C_R   0.322904 0.092988 0.177538 0.000000
C513  C     C_R   0.322400 0.085948 0.131890 0.000000
C514  C     C_R   0.345468 0.080543 0.109148 0.000000
C515  C     C_R   0.368497 0.085294 0.132593 0.000000
C516  C     C_R   0.368222 0.100438 0.176525 0.000000
N94   N     N_R   0.388841 0.100400 0.204120 0.000000
C517  C     C_2   0.345122 0.063032 0.062118 0.000000
O93   O     O_2   0.326018 0.070905 0.039282 0.000000
O94   O     O_2   0.364965 0.034420 0.044921 0.000000
H507  H     H_    0.362665 0.158268 0.304971 0.000000
H508  H     H_    0.387848 0.155582 0.345333 0.000000
H509  H     H_    0.392750 0.183621 0.291412 0.000000
H510  H     H_    0.409814 0.089155 0.285242 0.000000
H511  H     H_    0.389651 0.016267 0.308130 0.000000
H512  H     H_    0.379470 0.063266 0.350361 0.000000
H513  H     H_    0.357833 0.044482 0.306172 0.000000
H514  H     H_    0.307173 0.083600 0.197542 0.000000
H515  H     H_    0.304279 0.077191 0.115300 0.000000
H516  H     H_    0.386106 0.070609 0.119506 0.000000
H517  H     H_    0.364153 0.020780 0.014508 0.000000
C518  C     C_3   0.395228 0.986485 0.207758 0.000000
C519  C     C_3   0.406078 0.942810 0.178981 0.000000
C520  C     C_3   0.384199 0.904064 0.169345 0.000000
C521  C     C_R   0.418864 0.963077 0.137542 0.000000
N95   N     N_R   0.426175 0.016810 0.132277 0.000000
C522  C     C_R   0.438144 0.013117 0.092552 0.000000
C523  C     C_R   0.451828 0.052604 0.073108 0.000000
C524  C     C_R   0.462673 0.042136 0.032078 0.000000
C525  C     C_R   0.457072 0.994962 0.009012 0.000000
C526  C     C_R   0.444091 0.954207 0.030108 0.000000
C527  C     C_R   0.436991 0.962669 0.073920 0.000000
N96   N     N_R   0.426253 0.928094 0.102301 0.000000
C528  C     C_2   0.463736 0.990778 0.961657 0.000000
O95   O     O_2   0.481815 0.016207 0.947375 0.000000
O96   O     O_2   0.448287 0.963740 0.932995 0.000000
H518  H     H_    0.378552 0.003261 0.190287 0.000000
H519  H     H_    0.388104 0.969645 0.238862 0.000000
H520  H     H_    0.410512 0.015743 0.215986 0.000000
H521  H     H_    0.420480 0.923313 0.199718 0.000000
H522  H     H_    0.366023 0.925427 0.162187 0.000000
H523  H     H_    0.388653 0.877633 0.140571 0.000000
H524  H     H_    0.381183 0.879637 0.199066 0.000000
H525  H     H_    0.452859 0.091761 0.088354 0.000000
H526  H     H_    0.473633 0.073003 0.016611 0.000000
H527  H     H_    0.439535 0.917526 0.012561 0.000000
H528  H     H_    0.451792 0.964359 0.901409 0.000000
C529  C     C_3   0.449550 0.245180 0.199772 0.000000
C530  C     C_3   0.453153 0.245649 0.150290 0.000000
C531  C     C_3   0.477595 0.217776 0.135009 0.000000
C532  C     C_R   0.430558 0.223498 0.125444 0.000000
N97   N     N_R   0.423562 0.168844 0.122495 0.000000
C533  C     C_R   0.410552 0.168468 0.082682 0.000000
C534  C     C_R   0.403773 0.125455 0.055368 0.000000
C535  C     C_R   0.395249 0.133274 0.012425 0.000000
C536  C     C_R   0.396434 0.183173 0.994559 0.000000
C537  C     C_R   0.404056 0.225636 0.021628 0.000000
C538  C     C_R   0.408900 0.218670 0.065684 0.000000
N98   N     N_R   0.420324 0.255375 0.092409 0.000000
C539  C     C_2   0.393758 0.188793 0.946156 0.000000
O97   O     O_2   0.384346 0.152815 0.923290 0.000000
O98   O     O_2   0.402482 0.232822 0.926516 0.000000
H529  H     H_    0.431388 0.224108 0.206339 0.000000
H530  H     H_    0.466754 0.228744 0.216421 0.000000
H531  H     H_    0.447525 0.286290 0.212765 0.000000
H532  H     H_    0.455075 0.287894 0.140921 0.000000
H533  H     H_    0.493252 0.247660 0.133505 0.000000
H534  H     H_    0.482912 0.186153 0.158131 0.000000
H535  H     H_    0.474634 0.200278 0.101013 0.000000
H536  H     H_    0.406649 0.085322 0.064192 0.000000
H537  H     H_    0.391098 0.098813 0.991220 0.000000
H538  H     H_    0.411570 0.260783 0.008053 0.000000
H539  H     H_    0.400845 0.236217 0.894636 0.000000
C540  C     C_3   0.694148 0.119444 0.336644 0.000000
C541  C     C_3   0.719072 0.095630 0.319535 0.000000
C542  C     C_3   0.723944 0.044659 0.343306 0.000000
C543  C     C_R   0.718173 0.087781 0.270246 0.000000
N99   N     N_R   0.716014 0.037530 0.247933 0.000000
C544  C     C_R   0.711001 0.053355 0.206195 0.000000
C545  C     C_R   0.707759 0.022112 0.168536 0.000000
C546  C     C_R   0.698256 0.044889 0.130617 0.000000
C547  C     C_R   0.688229 0.095729 0.133307 0.000000
C548  C     C_R   0.694096 0.127879 0.170157 0.000000
C549  C     C_R   0.708491 0.107506 0.204331 0.000000
N100  N     N_R   0.715581 0.132385 0.243287 0.000000
C550  C     C_2   0.670541 0.113294 0.098221 0.000000
O99   O     O_2   0.668557 0.087061 0.063556 0.000000
O100  O     O_2   0.654816 0.155512 0.105405 0.000000
H540  H     H_    0.678523 0.090231 0.332043 0.000000
H541  H     H_    0.695943 0.129702 0.372685 0.000000
H542  H     H_    0.689795 0.155723 0.318135 0.000000
H543  H     H_    0.734425 0.124540 0.326807 0.000000
H544  H     H_    0.711770 0.012313 0.329451 0.000000
H545  H     H_    0.744392 0.034966 0.339117 0.000000
H546  H     H_    0.719858 0.050111 0.379402 0.000000
H547  H     H_    0.712507 0.981102 0.167794 0.000000
H548  H     H_    0.696094 0.020955 0.100415 0.000000
H549  H     H_    0.686665 0.167027 0.173118 0.000000
H550  H     H_    0.642769 0.165986 0.082565 0.000000
C551  C     C_3   0.740011 0.191731 0.139395 0.000000
C552  C     C_3   0.728718 0.245371 0.129063 0.000000
C553  C     C_3   0.700251 0.249613 0.133675 0.000000
C554  C     C_R   0.738421 0.284530 0.160852 0.000000
N101  N     N_R   0.738215 0.276786 0.207017 0.000000
C555  C     C_R   0.752990 0.318827 0.220435 0.000000
C556  C     C_R   0.759941 0.334252 0.263009 0.000000
C557  C     C_R   0.778565 0.372623 0.269374 0.000000
C558  C     C_R   0.791948 0.390668 0.233250 0.000000
C559  C     C_R   0.783593 0.378254 0.190439 0.000000
C560  C     C_R   0.762219 0.346337 0.184947 0.000000
N102  N     N_R   0.751034 0.329783 0.146256 0.000000
C561  C     C_2   0.816139 0.418783 0.240762 0.000000
O101  O     O_2   0.833466 0.413765 0.213633 0.000000
O102  O     O_2   0.820116 0.446819 0.279018 0.000000
H551  H     H_    0.736117 0.182617 0.174172 0.000000
H552  H     H_    0.732793 0.160393 0.115861 0.000000
H553  H     H_    0.761062 0.194040 0.136626 0.000000
H554  H     H_    0.735209 0.255893 0.095656 0.000000
H555  H     H_    0.694639 0.250866 0.169276 0.000000
H556  H     H_    0.695105 0.288237 0.120442 0.000000
H557  H     H_    0.690225 0.218262 0.114632 0.000000
H558  H     H_    0.754134 0.313384 0.291127 0.000000
H559  H     H_    0.785232 0.381845 0.302858 0.000000
H560  H     H_    0.793290 0.394376 0.162350 0.000000
H561  H     H_    0.836356 0.464772 0.283843 0.000000
C562  C     C_3   0.641141 0.154755 0.280107 0.000000
C563  C     C_3   0.653744 0.190330 0.247880 0.000000
C564  C     C_3   0.637620 0.193956 0.206243 0.000000
C565  C     C_R   0.660281 0.243272 0.267897 0.000000
N103  N     N_R   0.642471 0.283477 0.277676 0.000000
C566  C     C_R   0.657771 0.324676 0.288920 0.000000
C567  C     C_R   0.650319 0.376749 0.296678 0.000000
C568  C     C_R   0.668823 0.412563 0.311666 0.000000
C569  C     C_R   0.693972 0.395247 0.319279 0.000000
C570  C     C_R   0.701066 0.343183 0.307914 0.000000
C571  C     C_R   0.682980 0.309472 0.289378 0.000000
N104  N     N_R   0.685768 0.258236 0.274236 0.000000
C572  C     C_2   0.712947 0.431729 0.339982 0.000000
O103  O     O_2   0.706801 0.477453 0.350196 0.000000
O104  O     O_2   0.737200 0.414826 0.348088 0.000000
H562  H     H_    0.620779 0.148419 0.270671 0.000000
H563  H     H_    0.650905 0.116063 0.277771 0.000000
H564  H     H_    0.644368 0.171374 0.313949 0.000000
H565  H     H_    0.672065 0.171297 0.240151 0.000000
H566  H     H_    0.620070 0.218162 0.213167 0.000000
H567  H     H_    0.649208 0.212801 0.180425 0.000000
H568  H     H_    0.632515 0.153167 0.194003 0.000000
H569  H     H_    0.630640 0.389555 0.291528 0.000000
H570  H     H_    0.663129 0.453292 0.319370 0.000000
H571  H     H_    0.719141 0.327906 0.318289 0.000000
H572  H     H_    0.749646 0.438919 0.361711 0.000000
C573  C     C_3   0.417961 0.812234 0.989877 0.000000
C574  C     C_3   0.401337 0.765247 0.002675 0.000000
C575  C     C_3   0.415283 0.733779 0.036075 0.000000
C576  C     C_R   0.379397 0.784921 0.026973 0.000000
N105  N     N_R   0.385262 0.826482 0.056246 0.000000
C577  C     C_R   0.362855 0.854475 0.054277 0.000000
C578  C     C_R   0.358133 0.905541 0.069817 0.000000
C579  C     C_R   0.333786 0.926996 0.063049 0.000000
C580  C     C_R   0.315720 0.900821 0.035977 0.000000
C581  C     C_R   0.321569 0.851233 0.016982 0.000000
C582  C     C_R   0.344578 0.827749 0.028352 0.000000
N106  N     N_R   0.353504 0.780385 0.012386 0.000000
C583  C     C_2   0.290470 0.925623 0.027589 0.000000
O105  O     O_2   0.274768 0.903075 0.003279 0.000000
O106  O     O_2   0.284390 0.973083 0.047049 0.000000
H573  H     H_    0.425886 0.834566 0.018462 0.000000
H574  H     H_    0.434597 0.797251 0.970159 0.000000
H575  H     H_    0.406409 0.841003 0.970835 0.000000
H576  H     H_    0.395540 0.744228 0.971950 0.000000
H577  H     H_    0.403594 0.700109 0.047553 0.000000
H578  H     H_    0.433977 0.723148 0.022041 0.000000
H579  H     H_    0.418880 0.758946 0.065062 0.000000
H580  H     H_    0.372951 0.929363 0.085705 0.000000
H581  H     H_    0.329185 0.965268 0.078199 0.000000
H582  H     H_    0.308314 0.830731 0.994639 0.000000
H583  H     H_    0.267691 0.989101 0.041695 0.000000
C584  C     C_3   0.517306 0.856729 0.027087 0.000000
C585  C     C_3   0.489370 0.850325 0.013114 0.000000
C586  C     C_3   0.486170 0.858904 0.964568 0.000000
C587  C     C_R   0.478788 0.797643 0.024993 0.000000
N107  N     N_R   0.491598 0.748540 0.013335 0.000000
C588  C     C_R   0.483635 0.719863 0.046932 0.000000
C589  C     C_R   0.492299 0.670443 0.054491 0.000000
C590  C     C_R   0.486101 0.647051 0.092573 0.000000
C591  C     C_R   0.471185 0.674616 0.122735 0.000000
C592  C     C_R   0.461835 0.724863 0.115108 0.000000
C593  C     C_R   0.467876 0.747518 0.075947 0.000000
N108  N     N_R   0.460996 0.796073 0.060745 0.000000
C594  C     C_2   0.464469 0.648493 0.162087 0.000000
O107  O     O_2   0.474163 0.605681 0.169395 0.000000
O108  O     O_2   0.445052 0.667293 0.186825 0.000000
H584  H     H_    0.529629 0.825795 0.010980 0.000000
H585  H     H_    0.524109 0.896757 0.017958 0.000000
H586  H     H_    0.518625 0.854143 0.063745 0.000000
H587  H     H_    0.478622 0.881118 0.032167 0.000000
H588  H     H_    0.466581 0.874830 0.960095 0.000000
H589  H     H_    0.500357 0.888183 0.952616 0.000000
H590  H     H_    0.488094 0.819985 0.946684 0.000000
H591  H     H_    0.506638 0.653237 0.034726 0.000000
H592  H     H_    0.493635 0.607764 0.098232 0.000000
H593  H     H_    0.451743 0.745491 0.140547 0.000000
H594  H     H_    0.435971 0.642241 0.204033 0.000000
C595  C     C_3   0.395952 0.681679 0.142570 0.000000
C596  C     C_3   0.390583 0.739125 0.151817 0.000000
C597  C     C_3   0.363107 0.754576 0.143745 0.000000
C598  C     C_R   0.408434 0.773195 0.179933 0.000000
N109  N     N_R   0.417199 0.770593 0.225010 0.000000
C599  C     C_R   0.434037 0.812379 0.225708 0.000000
C600  C     C_R   0.447514 0.835568 0.260716 0.000000
C601  C     C_R   0.467552 0.869788 0.250363 0.000000
C602  C     C_R   0.475321 0.874039 0.206395 0.000000
C603  C     C_R   0.458529 0.860133 0.172980 0.000000
C604  C     C_R   0.437508 0.831692 0.184449 0.000000
N110  N     N_R   0.420966 0.810966 0.155454 0.000000
C605  C     C_2   0.502307 0.880271 0.193958 0.000000
O109  O     O_2   0.518563 0.895236 0.220924 0.000000
O110  O     O_2   0.509280 0.865295 0.152384 0.000000
H595  H     H_    0.397930 0.658439 0.172334 0.000000
H596  H     H_    0.380255 0.664469 0.121447 0.000000
H597  H     H_    0.414048 0.680844 0.123419 0.000000
H598  H     H_    0.397140 0.754405 0.120533 0.000000
H599  H     H_    0.360266 0.797368 0.151936 0.000000
H600  H     H_    0.359321 0.749056 0.107671 0.000000
H601  H     H_    0.350381 0.726779 0.160742 0.000000
H602  H     H_    0.443976 0.825454 0.294693 0.000000
H603  H     H_    0.479153 0.887119 0.276755 0.000000
H604  H     H_    0.462951 0.865557 0.138274 0.000000
H605  H     H_    0.527092 0.864438 0.143905 0.000000
C606  C     C_3   0.479452 0.416906 0.114044 0.000000
C607  C     C_3   0.476942 0.442944 0.070265 0.000000
C608  C     C_3   0.499043 0.481301 0.063620 0.000000
C609  C     C_R   0.474537 0.399983 0.035925 0.000000
N111  N     N_R   0.493329 0.392134 0.003343 0.000000
C610  C     C_R   0.490289 0.340632 0.992492 0.000000
C611  C     C_R   0.506713 0.311068 0.965982 0.000000
C612  C     C_R   0.501885 0.257508 0.959956 0.000000
C613  C     C_R   0.481281 0.234539 0.981643 0.000000
C614  C     C_R   0.466063 0.264828 0.011104 0.000000
C615  C     C_R   0.470167 0.318928 0.015223 0.000000
N112  N     N_R   0.458478 0.356079 0.042649 0.000000
C616  C     C_2   0.475279 0.178325 0.972082 0.000000
O111  O     O_2   0.490353 0.150193 0.950780 0.000000
O112  O     O_2   0.452103 0.158862 0.983150 0.000000
H606  H     H_    0.496110 0.389994 0.114108 0.000000
H607  H     H_    0.480773 0.448486 0.140019 0.000000
H608  H     H_    0.462662 0.391814 0.119962 0.000000
H609  H     H_    0.459728 0.466513 0.071641 0.000000
H610  H     H_    0.491648 0.515267 0.044954 0.000000
H611  H     H_    0.505250 0.498219 0.095989 0.000000
H612  H     H_    0.516063 0.463026 0.047191 0.000000
H613  H     H_    0.522963 0.329248 0.949968 0.000000
H614  H     H_    0.514156 0.234137 0.937746 0.000000
H615  H     H_    0.452737 0.245458 0.031857 0.000000
H616  H     H_    0.446989 0.123773 0.972423 0.000000
C617  C     C_3   0.351768 0.294413 0.975853 0.000000
C618  C     C_3   0.373381 0.334641 0.972502 0.000000
C619  C     C_3   0.377883 0.356119 0.926801 0.000000
C620  C     C_R   0.371170 0.376270 0.007917 0.000000
N113  N     N_R   0.353747 0.419677 0.006427 0.000000
C621  C     C_R   0.362002 0.448102 0.042139 0.000000
C622  C     C_R   0.353474 0.497416 0.056094 0.000000
C623  C     C_R   0.371775 0.532017 0.073547 0.000000
C624  C     C_R   0.397474 0.516354 0.070566 0.000000
C625  C     C_R   0.403560 0.463669 0.061581 0.000000
C626  C     C_R   0.384447 0.428044 0.058086 0.000000
N114  N     N_R   0.389396 0.378647 0.042735 0.000000
C627  C     C_2   0.418356 0.554043 0.078184 0.000000
O113  O     O_2   0.415771 0.590491 0.104928 0.000000
O114  O     O_2   0.441228 0.546173 0.058391 0.000000
H617  H     H_    0.332967 0.315062 0.977398 0.000000
H618  H     H_    0.352428 0.265174 0.947546 0.000000
H619  H     H_    0.354073 0.272806 0.007334 0.000000
H620  H     H_    0.391520 0.315430 0.978367 0.000000
H621  H     H_    0.398964 0.355630 0.920679 0.000000
H622  H     H_    0.369617 0.329027 0.901068 0.000000
H623  H     H_    0.370983 0.397700 0.924936 0.000000
H624  H     H_    0.334035 0.510092 0.049675 0.000000
H625  H     H_    0.366587 0.572843 0.082070 0.000000
H626  H     H_    0.422586 0.449420 0.055251 0.000000
H627  H     H_    0.455651 0.568389 0.066751 0.000000
C628  C     C_3   0.396075 0.485432 0.164771 0.000000
C629  C     C_3   0.424209 0.472722 0.159703 0.000000
C630  C     C_3   0.440016 0.514109 0.182915 0.000000
C631  C     C_R   0.426771 0.420241 0.178030 0.000000
N115  N     N_R   0.422425 0.415239 0.223444 0.000000
C632  C     C_R   0.413308 0.365155 0.224455 0.000000
C633  C     C_R   0.404822 0.339119 0.261103 0.000000
C634  C     C_R   0.389699 0.294349 0.254077 0.000000
C635  C     C_R   0.382430 0.278585 0.210962 0.000000
C636  C     C_R   0.393141 0.302848 0.174464 0.000000
C637  C     C_R   0.410186 0.343866 0.182132 0.000000
N116  N     N_R   0.420620 0.375260 0.151168 0.000000
C638  C     C_2   0.361469 0.240227 0.204255 0.000000
O115  O     O_2   0.355878 0.223833 0.166814 0.000000
O116  O     O_2   0.346934 0.226389 0.239092 0.000000
H628  H     H_    0.390588 0.477415 0.198786 0.000000
H629  H     H_    0.391331 0.527433 0.157952 0.000000
H630  H     H_    0.384888 0.456784 0.144012 0.000000
H631  H     H_    0.431284 0.470251 0.126013 0.000000
H632  H     H_    0.457693 0.517559 0.162944 0.000000
H633  H     H_    0.429957 0.552980 0.183065 0.000000
H634  H     H_    0.444202 0.502249 0.217081 0.000000
H635  H     H_    0.407257 0.356370 0.294120 0.000000
H636  H     H_    0.381211 0.275902 0.282617 0.000000
H637  H     H_    0.386302 0.293774 0.141165 0.000000
H638  H     H_    0.332136 0.203741 0.234261 0.000000
C639  C     C_3   0.904548 0.199166 0.933085 0.000000
C640  C     C_3   0.901052 0.238188 0.971520 0.000000
C641  C     C_3   0.895206 0.291227 0.955299 0.000000
C642  C     C_R   0.880932 0.225965 0.004466 0.000000
N117  N     N_R   0.854255 0.222465 0.996165 0.000000
C643  C     C_R   0.845478 0.214265 0.037042 0.000000
C644  C     C_R   0.820803 0.200559 0.046704 0.000000
C645  C     C_R   0.814832 0.196181 0.090011 0.000000
C646  C     C_R   0.833767 0.202948 0.121982 0.000000
C647  C     C_R   0.859669 0.204553 0.111027 0.000000
C648  C     C_R   0.864955 0.212071 0.067533 0.000000
N118  N     N_R   0.888170 0.219184 0.048600 0.000000
C649  C     C_2   0.825232 0.209912 0.166922 0.000000
O117  O     O_2   0.803569 0.226987 0.173849 0.000000
O118  O     O_2   0.838460 0.185863 0.198756 0.000000
H639  H     H_    0.887575 0.173787 0.930309 0.000000
H640  H     H_    0.907343 0.221364 0.902215 0.000000
H641  H     H_    0.921958 0.174276 0.938610 0.000000
H642  H     H_    0.919430 0.240824 0.989502 0.000000
H643  H     H_    0.891347 0.315279 0.985924 0.000000
H644  H     H_    0.912488 0.305475 0.938025 0.000000
H645  H     H_    0.877973 0.289764 0.933295 0.000000
H646  H     H_    0.806069 0.193693 0.022251 0.000000
H647  H     H_    0.795094 0.188963 0.098320 0.000000
H648  H     H_    0.874934 0.206907 0.135220 0.000000
H649  H     H_    0.829658 0.174213 0.224680 0.000000
C650  C     C_3   0.020763 0.147559 0.043644 0.000000
C651  C     C_3   0.992813 0.140305 0.032114 0.000000
C652  C     C_3   0.981874 0.118349 0.073346 0.000000
C653  C     C_R   0.980268 0.191789 0.019637 0.000000
N119  N     N_R   0.957578 0.213017 0.039050 0.000000
C654  C     C_R   0.961224 0.264569 0.033648 0.000000
C655  C     C_R   0.947833 0.302302 0.056491 0.000000
C656  C     C_R   0.961129 0.346716 0.068958 0.000000
C657  C     C_R   0.985376 0.354920 0.051996 0.000000
C658  C     C_R   0.997192 0.318969 0.024040 0.000000
C659  C     C_R   0.984228 0.273974 0.013885 0.000000
N120  N     N_R   0.995295 0.229095 0.998849 0.000000
C660  C     C_2   0.998463 0.403081 0.061467 0.000000
O119  O     O_2   0.991719 0.431154 0.092984 0.000000
O120  O     O_2   0.017144 0.417903 0.033488 0.000000
H650  H     H_    0.022397 0.168172 0.076696 0.000000
H651  H     H_    0.030874 0.108737 0.044509 0.000000
H652  H     H_    0.030059 0.170875 0.018511 0.000000
H653  H     H_    0.991315 0.112512 0.003653 0.000000
H654  H     H_    0.997035 0.106260 0.096896 0.000000
H655  H     H_    0.970849 0.149515 0.089612 0.000000
H656  H     H_    0.970330 0.083075 0.066037 0.000000
H657  H     H_    0.928733 0.294792 0.068252 0.000000
H658  H     H_    0.951875 0.375615 0.090127 0.000000
H659  H     H_    0.016624 0.324462 0.012924 0.000000
H660  H     H_    0.026952 0.449729 0.038861 0.000000
C661  C     C_3   0.903128 0.121368 0.016951 0.000000
C662  C     C_3   0.916224 0.073444 0.025081 0.000000
C663  C     C_3   0.939623 0.075529 0.996398 0.000000
C664  C     C_R   0.920264 0.074838 0.073208 0.000000
N121  N     N_R   0.926586 0.119839 0.098957 0.000000
C665  C     C_R   0.936920 0.096397 0.135435 0.000000
C666  C     C_R   0.956453 0.116122 0.162697 0.000000
C667  C     C_R   0.971584 0.081299 0.185793 0.000000
C668  C     C_R   0.966048 0.027639 0.184453 0.000000
C669  C     C_R   0.944502 0.009314 0.162371 0.000000
C670  C     C_R   0.932734 0.042787 0.133687 0.000000
N122  N     N_R   0.922364 0.027859 0.094383 0.000000
C671  C     C_2   0.984237 0.989238 0.202002 0.000000
O121  O     O_2   0.002565 0.004592 0.223855 0.000000
O122  O     O_2   0.980468 0.936777 0.195235 0.000000
H661  H     H_    0.916938 0.154150 0.019896 0.000000
H662  H     H_    0.895565 0.117773 0.982963 0.000000
H663  H     H_    0.889113 0.123328 0.044491 0.000000
H664  H     H_    0.904069 0.039138 0.015697 0.000000
H665  H     H_    0.954320 0.047735 0.007248 0.000000
H666  H     H_    0.933347 0.067207 0.961727 0.000000
H667  H     H_    0.948320 0.115075 0.996089 0.000000
H668  H     H_    0.962250 0.156893 0.162315 0.000000
H669  H     H_    0.988238 0.096395 0.203424 0.000000
H670  H     H_    0.940904 0.967562 0.160320 0.000000
H671  H     H_    0.993342 0.911767 0.204638 0.000000
C672  C     C_3   0.834471 0.355852 0.386272 0.000000
C673  C     C_3   0.860357 0.352386 0.362349 0.000000
C674  C     C_3   0.884139 0.363207 0.391479 0.000000
C675  C     C_R   0.864667 0.300714 0.338933 0.000000
N123  N     N_R   0.850549 0.252979 0.346454 0.000000
C676  C     C_R   0.861623 0.220908 0.315808 0.000000
C677  C     C_R   0.854764 0.169802 0.304195 0.000000
C678  C     C_R   0.867955 0.143799 0.270716 0.000000
C679  C     C_R   0.885804 0.171498 0.246647 0.000000
C680  C     C_R   0.893016 0.221205 0.260853 0.000000
C681  C     C_R   0.880972 0.245756 0.294241 0.000000
N124  N     N_R   0.884651 0.296724 0.307285 0.000000
C682  C     C_2   0.895859 0.153712 0.203885 0.000000
O123  O     O_2   0.883724 0.124741 0.178571 0.000000
O124  O     O_2   0.917751 0.174915 0.190087 0.000000
H672  H     H_    0.829965 0.319674 0.404611 0.000000
H673  H     H_    0.834139 0.391083 0.409437 0.000000
H674  H     H_    0.819046 0.360887 0.360998 0.000000
H675  H     H_    0.859185 0.382459 0.336261 0.000000
H676  H     H_    0.901351 0.369793 0.370542 0.000000
H677  H     H_    0.881117 0.396872 0.415465 0.000000
H678  H     H_    0.889965 0.327925 0.409094 0.000000
H679  H     H_    0.839832 0.149284 0.320693 0.000000
H680  H     H_    0.862561 0.103766 0.262408 0.000000
H681  H     H_    0.907250 0.242225 0.245662 0.000000
H682  H     H_    0.930806 0.187048 0.210931 0.000000
C683  C     C_3   0.886817 0.333364 0.118198 0.000000
C684  C     C_3   0.890316 0.323135 0.166443 0.000000
C685  C     C_3   0.866535 0.304161 0.189876 0.000000
C686  C     C_R   0.913688 0.289949 0.174853 0.000000
N125  N     N_R   0.927871 0.258548 0.143146 0.000000
C687  C     C_R   0.951987 0.265063 0.160150 0.000000
C688  C     C_R   0.975004 0.250258 0.141663 0.000000
C689  C     C_R   0.997318 0.267719 0.161627 0.000000
C690  C     C_R   0.996754 0.302718 0.197858 0.000000
C691  C     C_R   0.974011 0.310609 0.219538 0.000000
C692  C     C_R   0.951849 0.292886 0.199683 0.000000
N126  N     N_R   0.927933 0.306830 0.211586 0.000000
C693  C     C_2   0.019093 0.334580 0.212126 0.000000
O125  O     O_2   0.039965 0.327805 0.194293 0.000000
O126  O     O_2   0.016497 0.372175 0.244782 0.000000
H683  H     H_    0.885316 0.296261 0.099138 0.000000
H684  H     H_    0.869674 0.358604 0.112431 0.000000
H685  H     H_    0.904520 0.353849 0.108202 0.000000
H686  H     H_    0.894347 0.362835 0.182084 0.000000
H687  H     H_    0.867915 0.261018 0.193208 0.000000
H688  H     H_    0.865916 0.322962 0.223725 0.000000
H689  H     H_    0.848806 0.315518 0.171873 0.000000
H690  H     H_    0.976456 0.227506 0.111729 0.000000
H691  H     H_    0.014754 0.253958 0.147526 0.000000
H692  H     H_    0.973843 0.334966 0.248735 0.000000
H693  H     H_    0.030960 0.394102 0.253795 0.000000
C694  C     C_3   0.953149 0.420010 0.166370 0.000000
C695  C     C_3   0.953370 0.439425 0.213504 0.000000
C696  C     C_3   0.973280 0.482208 0.221347 0.000000
C697  C     C_R   0.927623 0.456795 0.227760 0.000000
N127  N     N_R   0.918628 0.508991 0.221071 0.000000
C698  C     C_R   0.902560 0.514778 0.255763 0.000000
C699  C     C_R   0.888933 0.560040 0.266737 0.000000
C700  C     C_R   0.873407 0.560293 0.303775 0.000000
C701  C     C_R   0.873704 0.517171 0.331505 0.000000
C702  C     C_R   0.888083 0.471847 0.319974 0.000000
C703  C     C_R   0.901041 0.469279 0.280164 0.000000
N128  N     N_R   0.915758 0.428929 0.262045 0.000000
C704  C     C_2   0.858172 0.519709 0.372368 0.000000
O127  O     O_2   0.841019 0.552919 0.376662 0.000000
O128  O     O_2   0.862710 0.485798 0.405359 0.000000
H694  H     H_    0.954508 0.454499 0.145084 0.000000
H695  H     H_    0.970059 0.393606 0.160696 0.000000
H696  H     H_    0.934939 0.398423 0.159464 0.000000
H697  H     H_    0.958282 0.407513 0.235604 0.000000
H698  H     H_    0.973130 0.492642 0.257342 0.000000
H699  H     H_    0.992594 0.466491 0.211869 0.000000
H700  H     H_    0.968733 0.517568 0.201749 0.000000
H701  H     H_    0.888867 0.593158 0.245081 0.000000
H702  H     H_    0.861749 0.595120 0.311556 0.000000
H703  H     H_    0.890017 0.440971 0.342491 0.000000
H704  H     H_    0.852418 0.487859 0.432172 0.000000
C705  C     C_3   0.980272 0.187753 0.278672 0.000000
C706  C     C_3   0.958078 0.219328 0.298325 0.000000
C707  C     C_3   0.940964 0.185858 0.326075 0.000000
C708  C     C_R   0.966651 0.267931 0.323355 0.000000
N129  N     N_R   0.990086 0.271956 0.347492 0.000000
C709  C     C_R   0.992182 0.325711 0.351128 0.000000
C710  C     C_R   0.012256 0.353996 0.370047 0.000000
C711  C     C_R   0.009187 0.408756 0.375801 0.000000
C712  C     C_R   0.986498 0.434076 0.362284 0.000000
C713  C     C_R   0.967351 0.405320 0.339917 0.000000
C714  C     C_R   0.970560 0.351235 0.335054 0.000000
N130  N     N_R   0.953799 0.316348 0.316140 0.000000
C715  C     C_2   0.982122 0.490652 0.373790 0.000000
O129  O     O_2   0.998169 0.515776 0.395508 0.000000
O130  O     O_2   0.960088 0.514851 0.361202 0.000000
H705  H     H_    0.993984 0.175180 0.304726 0.000000
H706  H     H_    0.972528 0.152898 0.260140 0.000000
H707  H     H_    0.989869 0.212418 0.254051 0.000000
H708  H     H_    0.946445 0.233166 0.270563 0.000000
H709  H     H_    0.933559 0.211533 0.353600 0.000000
H710  H     H_    0.924269 0.171308 0.307248 0.000000
H711  H     H_    0.951478 0.149758 0.335447 0.000000
H712  H     H_    0.029134 0.333885 0.382634 0.000000
H713  H     H_    0.024160 0.431179 0.393029 0.000000
H714  H     H_    0.949716 0.423949 0.328928 0.000000
H715  H     H_    0.957125 0.552012 0.369051 0.000000
C716  C     C_3   0.468605 0.618587 0.271783 0.000000
C717  C     C_3   0.451358 0.594052 0.304579 0.000000
C718  C     C_3   0.449008 0.624381 0.347055 0.000000
C719  C     C_R   0.426780 0.595478 0.282127 0.000000
N131  N     N_R   0.414661 0.642859 0.272945 0.000000
C720  C     C_R   0.393237 0.625987 0.253227 0.000000
C721  C     C_R   0.373608 0.658282 0.243122 0.000000
C722  C     C_R   0.350282 0.636489 0.232627 0.000000
C723  C     C_R   0.347184 0.582148 0.233660 0.000000
C724  C     C_R   0.368141 0.549424 0.243429 0.000000
C725  C     C_R   0.391888 0.572133 0.251215 0.000000
N132  N     N_R   0.413987 0.550459 0.267540 0.000000
C726  C     C_2   0.320838 0.562432 0.235630 0.000000
O131  O     O_2   0.316347 0.522065 0.255534 0.000000
O132  O     O_2   0.301327 0.590665 0.217928 0.000000
H716  H     H_    0.465624 0.593764 0.242032 0.000000
H717  H     H_    0.460582 0.657620 0.267112 0.000000
H718  H     H_    0.489394 0.621990 0.277391 0.000000
H719  H     H_    0.456642 0.554716 0.312023 0.000000
H720  H     H_    0.439740 0.603267 0.373594 0.000000
H721  H     H_    0.467050 0.639508 0.359018 0.000000
H722  H     H_    0.437007 0.656486 0.339392 0.000000
H723  H     H_    0.377181 0.699574 0.245832 0.000000
H724  H     H_    0.333810 0.662020 0.232822 0.000000
H725  H     H_    0.365195 0.509235 0.250882 0.000000
H726  H     H_    0.283730 0.578289 0.219421 0.000000
C727  C     C_3   0.457043 0.364044 0.335121 0.000000
C728  C     C_3   0.456745 0.415094 0.362599 0.000000
C729  C     C_3   0.462576 0.415689 0.411570 0.000000
C730  C     C_R   0.474480 0.449851 0.340859 0.000000
N133  N     N_R   0.500495 0.458698 0.352622 0.000000
C731  C     C_R   0.508633 0.483215 0.316736 0.000000
C732  C     C_R   0.532518 0.504717 0.313343 0.000000
C733  C     C_R   0.538743 0.532361 0.276496 0.000000
C734  C     C_R   0.521484 0.534280 0.241797 0.000000
C735  C     C_R   0.496803 0.512210 0.245720 0.000000
C736  C     C_R   0.489704 0.488362 0.285232 0.000000
N134  N     N_R   0.466490 0.469150 0.300692 0.000000
C737  C     C_2   0.530631 0.558864 0.201170 0.000000
O133  O     O_2   0.551237 0.582292 0.201481 0.000000
O134  O     O_2   0.517761 0.552644 0.162704 0.000000
H727  H     H_    0.475600 0.343108 0.337977 0.000000
H728  H     H_    0.439550 0.341510 0.342947 0.000000
H729  H     H_    0.455086 0.373088 0.299387 0.000000
H730  H     H_    0.436823 0.428374 0.358289 0.000000
H731  H     H_    0.467706 0.456575 0.422507 0.000000
H732  H     H_    0.444548 0.407716 0.429639 0.000000
H733  H     H_    0.478970 0.389118 0.418800 0.000000
H734  H     H_    0.546558 0.500645 0.339122 0.000000
H735  H     H_    0.557930 0.548980 0.274479 0.000000
H736  H     H_    0.484452 0.513706 0.217846 0.000000
H737  H     H_    0.525321 0.566803 0.136240 0.000000
C738  C     C_3   0.325918 0.400962 0.315960 0.000000
C739  C     C_3   0.354251 0.405166 0.308984 0.000000
C740  C     C_3   0.357212 0.410574 0.259958 0.000000
C741  C     C_R   0.365309 0.452398 0.334238 0.000000
N135  N     N_R   0.391611 0.466373 0.329501 0.000000
C742  C     C_R   0.394745 0.497673 0.366124 0.000000
C743  C     C_R   0.417632 0.516138 0.382477 0.000000
C744  C     C_R   0.418754 0.536747 0.425298 0.000000
C745  C     C_R   0.396523 0.545525 0.449380 0.000000
C746  C     C_R   0.372711 0.533716 0.429610 0.000000
C747  C     C_R   0.372308 0.505889 0.389196 0.000000
N136  N     N_R   0.352386 0.477363 0.371076 0.000000
C748  C     C_2   0.399236 0.561861 0.496752 0.000000
O135  O     O_2   0.420498 0.561562 0.514157 0.000000
O136  O     O_2   0.378405 0.570560 0.522550 0.000000
H738  H     H_    0.318329 0.441975 0.313550 0.000000
H739  H     H_    0.317365 0.375027 0.289439 0.000000
H740  H     H_    0.321167 0.382840 0.347857 0.000000
H741  H     H_    0.363816 0.368070 0.319645 0.000000
H742  H     H_    0.354151 0.371434 0.242922 0.000000
H743  H     H_    0.342359 0.438501 0.248559 0.000000
H744  H     H_    0.376373 0.426227 0.252847 0.000000
H745  H     H_    0.434765 0.512575 0.363183 0.000000
H746  H     H_    0.437215 0.546695 0.439603 0.000000
H747  H     H_    0.355225 0.538198 0.447981 0.000000
H748  H     H_    0.380570 0.581110 0.553538 0.000000
C749  C     C_3   0.008739 0.007762 0.041352 0.000000
C750  C     C_3   0.992681 0.960264 0.051180 0.000000
C751  C     C_3   0.978861 0.967514 0.093437 0.000000
C752  C     C_R   0.975222 0.953479 0.013360 0.000000
N137  N     N_R   0.947898 0.950418 0.014067 0.000000
C753  C     C_R   0.942826 0.957472 0.970245 0.000000
C754  C     C_R   0.919322 0.966571 0.951255 0.000000
C755  C     C_R   0.917929 0.981643 0.907371 0.000000
C756  C     C_R   0.940170 0.990446 0.883548 0.000000
C757  C     C_R   0.963916 0.981515 0.902832 0.000000
C758  C     C_R   0.964968 0.965658 0.946268 0.000000
N138  N     N_R   0.986124 0.963059 0.972440 0.000000
C759  C     C_2   0.938563 0.014055 0.839733 0.000000
O137  O     O_2   0.917768 0.017278 0.820843 0.000000
O138  O     O_2   0.959698 0.035793 0.821693 0.000000
H749  H     H_    0.997889 0.034452 0.020403 0.000000
H750  H     H_    0.014929 0.030148 0.071254 0.000000
H751  H     H_    0.025536 0.993615 0.022526 0.000000
H752  H     H_    0.006364 0.927507 0.053418 0.000000
H753  H     H_    0.987991 0.940771 0.117208 0.000000
H754  H     H_    0.980557 0.009482 0.104110 0.000000
H755  H     H_    0.958632 0.956257 0.090013 0.000000
H756  H     H_    0.902456 0.965997 0.970842 0.000000
H757  H     H_    0.899317 0.988983 0.892450 0.000000
H758  H     H_    0.980974 0.990220 0.884766 0.000000
H759  H     H_    0.958389 0.054997 0.794370 0.000000
C760  C     C_3   0.848176 0.849890 0.998594 0.000000
C761  C     C_3   0.868887 0.887480 0.983791 0.000000
C762  C     C_3   0.865413 0.895406 0.934965 0.000000
C763  C     C_R   0.862160 0.937456 0.006233 0.000000
N139  N     N_R   0.837643 0.957457 0.999635 0.000000
C764  C     C_R   0.834578 0.988406 0.035311 0.000000
C765  C     C_R   0.812245 0.014843 0.043955 0.000000
C766  C     C_R   0.811467 0.048867 0.079563 0.000000
C767  C     C_R   0.833628 0.057107 0.104254 0.000000
C768  C     C_R   0.856880 0.031162 0.093992 0.000000
C769  C     C_R   0.856680 0.992138 0.060377 0.000000
N140  N     N_R   0.875786 0.960105 0.042240 0.000000
C770  C     C_2   0.829925 0.085452 0.145998 0.000000
O139  O     O_2   0.809713 0.109565 0.151706 0.000000
O140  O     O_2   0.843664 0.071168 0.181526 0.000000
H760  H     H_    0.830196 0.853885 0.978704 0.000000
H761  H     H_    0.854309 0.808288 0.998792 0.000000
H762  H     H_    0.844207 0.861763 0.033115 0.000000
H763  H     H_    0.888510 0.874564 0.993523 0.000000
H764  H     H_    0.853656 0.929835 0.930196 0.000000
H765  H     H_    0.883093 0.905764 0.917756 0.000000
H766  H     H_    0.855964 0.860052 0.919968 0.000000
H767  H     H_    0.795801 0.009288 0.022795 0.000000
H768  H     H_    0.793399 0.068970 0.086895 0.000000
H769  H     H_    0.874005 0.044662 0.110637 0.000000
H770  H     H_    0.837159 0.080259 0.210728 0.000000
C771  C     C_3   0.861410 0.881977 0.191209 0.000000
C772  C     C_3   0.878616 0.910449 0.159562 0.000000
C773  C     C_3   0.883553 0.965820 0.174117 0.000000
C774  C     C_R   0.904781 0.887579 0.157157 0.000000
N141  N     N_R   0.917650 0.861439 0.191922 0.000000
C775  C     C_R   0.939497 0.847446 0.170718 0.000000
C776  C     C_R   0.960303 0.824459 0.189944 0.000000
C777  C     C_R   0.982108 0.816767 0.164823 0.000000
C778  C     C_R   0.981852 0.827726 0.119862 0.000000
C779  C     C_R   0.960437 0.851406 0.100513 0.000000
C780  C     C_R   0.940144 0.864574 0.127825 0.000000
N142  N     N_R   0.919347 0.895027 0.118850 0.000000
C781  C     C_2   0.005417 0.820647 0.094361 0.000000
O141  O     O_2   0.025054 0.804280 0.111931 0.000000
O142  O     O_2   0.006099 0.837342 0.052494 0.000000
H771  H     H_    0.872774 0.868075 0.218989 0.000000
H772  H     H_    0.846234 0.908294 0.204698 0.000000
H773  H     H_    0.852318 0.847907 0.173813 0.000000
H774  H     H_    0.869609 0.910116 0.126045 0.000000
H775  H     H_    0.890899 0.985675 0.145427 0.000000
H776  H     H_    0.866999 0.985992 0.189979 0.000000
H777  H     H_    0.900117 0.963353 0.196178 0.000000
H778  H     H_    0.960536 0.818783 0.224821 0.000000
H779  H     H_    0.999606 0.804572 0.181324 0.000000
H780  H     H_    0.960150 0.862223 0.065982 0.000000
H781  H     H_    0.022531 0.845800 0.039550 0.000000
C782  C     C_3   0.037899 0.756073 0.999089 0.000000
C783  C     C_3   0.057189 0.714408 0.007923 0.000000
C784  C     C_3   0.080044 0.720993 0.978769 0.000000
C785  C     C_R   0.062695 0.711601 0.056515 0.000000
N143  N     N_R   0.074629 0.750974 0.083814 0.000000
C786  C     C_R   0.073662 0.727374 0.123790 0.000000
C787  C     C_R   0.078172 0.749687 0.165264 0.000000
C788  C     C_R   0.078610 0.717338 0.201473 0.000000
C789  C     C_R   0.073887 0.663202 0.196294 0.000000
C790  C     C_R   0.066495 0.642284 0.154670 0.000000
C791  C     C_R   0.064642 0.676504 0.119825 0.000000
N144  N     N_R   0.055131 0.666336 0.078612 0.000000
C792  C     C_2   0.074811 0.630470 0.236094 0.000000
O143  O     O_2   0.084648 0.648218 0.270378 0.000000
O144  O     O_2   0.063429 0.582455 0.236171 0.000000
H782  H     H_    0.047368 0.795156 0.998681 0.000000
H783  H     H_    0.028398 0.745750 0.966953 0.000000
H784  H     H_    0.023996 0.755019 0.026399 0.000000
H785  H     H_    0.048617 0.676426 0.997157 0.000000
H786  H     H_    0.082028 0.683522 0.958979 0.000000
H787  H     H_    0.075992 0.751617 0.953923 0.000000
H788  H     H_    0.097108 0.730005 0.999870 0.000000
H789  H     H_    0.079854 0.791614 0.170820 0.000000
H790  H     H_    0.082524 0.735144 0.234005 0.000000
H791  H     H_    0.062420 0.600563 0.149207 0.000000
H792  H     H_    0.062542 0.563315 0.263583 0.000000
C793  C     C_3   0.063591 0.555773 0.920227 0.000000
C794  C     C_3   0.037377 0.532154 0.929115 0.000000
C795  C     C_3   0.039518 0.484430 0.957855 0.000000
C796  C     C_R   0.019868 0.573942 0.948079 0.000000
N145  N     N_R   0.021250 0.594257 0.992394 0.000000
C797  C     C_R   0.003690 0.632714 0.990930 0.000000
C798  C     C_R   0.996800 0.665638 0.025733 0.000000
C799  C     C_R   0.980145 0.706129 0.017491 0.000000
C800  C     C_R   0.972943 0.714336 0.974031 0.000000
C801  C     C_R   0.979285 0.678964 0.939678 0.000000
C802  C     C_R   0.993652 0.637144 0.949682 0.000000
N146  N     N_R   0.001713 0.599145 0.920977 0.000000
C803  C     C_2   0.958609 0.760664 0.964551 0.000000
O145  O     O_2   0.951283 0.790252 0.994908 0.000000
O146  O     O_2   0.956443 0.774847 0.922192 0.000000
H793  H     H_    0.065777 0.592504 0.940938 0.000000
H794  H     H_    0.079024 0.526268 0.926971 0.000000
H795  H     H_    0.065000 0.567826 0.885320 0.000000
H796  H     H_    0.028935 0.517575 0.897944 0.000000
H797  H     H_    0.019773 0.468934 0.962973 0.000000
H798  H     H_    0.051077 0.452956 0.940465 0.000000
H799  H     H_    0.049000 0.496045 0.989550 0.000000
H800  H     H_    0.005615 0.663560 0.057565 0.000000
H801  H     H_    0.975012 0.733653 0.044417 0.000000
H802  H     H_    0.972835 0.680701 0.906016 0.000000
H803  H     H_    0.964656 0.758831 0.896531 0.000000
C804  C     C_3   0.045700 0.408337 0.121474 0.000000
C805  C     C_3   0.044568 0.468173 0.121664 0.000000
C806  C     C_3   0.043771 0.491797 0.168195 0.000000
C807  C     C_R   0.065466 0.489034 0.094015 0.000000
N147  N     N_R   0.088319 0.461761 0.083026 0.000000
C808  C     C_R   0.099178 0.497061 0.054359 0.000000
C809  C     C_R   0.122139 0.494727 0.030758 0.000000
C810  C     C_R   0.127119 0.530607 0.998604 0.000000
C811  C     C_R   0.111515 0.573627 0.993080 0.000000
C812  C     C_R   0.089562 0.579602 0.019117 0.000000
C813  C     C_R   0.083394 0.539811 0.048020 0.000000
N148  N     N_R   0.061448 0.535564 0.071189 0.000000
C814  C     C_2   0.119227 0.611205 0.959388 0.000000
O147  O     O_2   0.122006 0.595881 0.920753 0.000000
O148  O     O_2   0.126510 0.660680 0.971876 0.000000
H804  H     H_    0.062241 0.393939 0.139835 0.000000
H805  H     H_    0.027811 0.392839 0.136243 0.000000
H806  H     H_    0.048539 0.392505 0.087221 0.000000
H807  H     H_    0.026795 0.483200 0.106661 0.000000
H808  H     H_    0.026577 0.517746 0.170618 0.000000
H809  H     H_    0.041156 0.459985 0.192540 0.000000
H810  H     H_    0.061528 0.514984 0.174789 0.000000
H811  H     H_    0.136528 0.465490 0.033439 0.000000
H812  H     H_    0.144076 0.525783 0.978214 0.000000
H813  H     H_    0.076676 0.612303 0.014508 0.000000
H814  H     H_    0.130478 0.686763 0.949956 0.000000
C815  C     C_3   0.008935 0.620429 0.200701 0.000000
C816  C     C_3   0.989515 0.643861 0.169696 0.000000
C817  C     C_3   0.000098 0.692287 0.148324 0.000000
C818  C     C_R   0.981759 0.602461 0.136508 0.000000
N149  N     N_R   0.997292 0.585194 0.100319 0.000000
C819  C     C_R   0.980539 0.552302 0.079240 0.000000
C820  C     C_R   0.985148 0.523471 0.041168 0.000000
C821  C     C_R   0.966536 0.488882 0.026002 0.000000
C822  C     C_R   0.943932 0.482620 0.049964 0.000000
C823  C     C_R   0.938260 0.516029 0.085951 0.000000
C824  C     C_R   0.957374 0.549278 0.100893 0.000000
N150  N     N_R   0.957155 0.579406 0.138434 0.000000
C825  C     C_2   0.927215 0.437733 0.038878 0.000000
O149  O     O_2   0.933504 0.405372 0.009989 0.000000
O150  O     O_2   0.905332 0.430669 0.061412 0.000000
H815  H     H_    0.024597 0.604044 0.180513 0.000000
H816  H     H_    0.016312 0.650937 0.224927 0.000000
H817  H     H_    0.000120 0.586582 0.217551 0.000000
H818  H     H_    0.972316 0.656907 0.187853 0.000000
H819  H     H_    0.984501 0.711865 0.129326 0.000000
H820  H     H_    0.008085 0.719138 0.174673 0.000000
H821  H     H_    0.015740 0.680605 0.125995 0.000000
H822  H     H_    0.003916 0.521611 0.026947 0.000000
H823  H     H_    0.971157 0.462717 0.997844 0.000000
H824  H     H_    0.920779 0.512204 0.104757 0.000000
H825  H     H_    0.893539 0.402848 0.052064 0.000000
C826  C     C_3   0.786857 0.660451 0.913938 0.000000
C827  C     C_3   0.812270 0.671531 0.937751 0.000000
C828  C     C_3   0.809209 0.708302 0.978579 0.000000
C829  C     C_R   0.824847 0.619543 0.947250 0.000000
N151  N     N_R   0.824743 0.593483 0.988268 0.000000
C830  C     C_R   0.840611 0.552240 0.978475 0.000000
C831  C     C_R   0.855663 0.527725 0.008997 0.000000
C832  C     C_R   0.880505 0.515279 0.995898 0.000000
C833  C     C_R   0.887058 0.513140 0.950940 0.000000
C834  C     C_R   0.868758 0.523714 0.919955 0.000000
C835  C     C_R   0.848044 0.551616 0.934834 0.000000
N152  N     N_R   0.839853 0.594660 0.914197 0.000000
C836  C     C_2   0.913293 0.503749 0.935004 0.000000
O151  O     O_2   0.930698 0.497064 0.960994 0.000000
O152  O     O_2   0.918728 0.503258 0.891392 0.000000
H826  H     H_    0.780091 0.620158 0.922152 0.000000
H827  H     H_    0.771957 0.691226 0.921328 0.000000
H828  H     H_    0.790264 0.660099 0.877812 0.000000
H829  H     H_    0.825113 0.691467 0.914085 0.000000
H830  H     H_    0.822176 0.742649 0.977658 0.000000
H831  H     H_    0.789730 0.726134 0.980268 0.000000
H832  H     H_    0.814370 0.687193 0.008727 0.000000
H833  H     H_    0.850386 0.527884 0.043398 0.000000
H834  H     H_    0.894763 0.510573 0.021206 0.000000
H835  H     H_    0.873891 0.523451 0.885601 0.000000
H836  H     H_    0.936490 0.499884 0.881788 0.000000
C837  C     C_3   0.868949 0.472743 0.132405 0.000000
C838  C     C_3   0.852584 0.520817 0.143098 0.000000
C839  C     C_3   0.848614 0.526536 0.192403 0.000000
C840  C     C_R   0.863774 0.570283 0.125415 0.000000
N153  N     N_R   0.888810 0.588344 0.135516 0.000000
C841  C     C_R   0.890384 0.630493 0.109010 0.000000
C842  C     C_R   0.910740 0.665292 0.107402 0.000000
C843  C     C_R   0.906428 0.713906 0.088690 0.000000
C844  C     C_R   0.881644 0.727375 0.075199 0.000000
C845  C     C_R   0.862250 0.689465 0.071675 0.000000
C846  C     C_R   0.867242 0.640330 0.088231 0.000000
N154  N     N_R   0.849694 0.602201 0.096373 0.000000
C847  C     C_2   0.874420 0.783286 0.076711 0.000000
O153  O     O_2   0.890509 0.817606 0.070590 0.000000
O154  O     O_2   0.850805 0.796858 0.091752 0.000000
H837  H     H_    0.888877 0.477974 0.145189 0.000000
H838  H     H_    0.860192 0.437579 0.147619 0.000000
H839  H     H_    0.868319 0.466727 0.095935 0.000000
H840  H     H_    0.834037 0.513483 0.126502 0.000000
H841  H     H_    0.851104 0.568793 0.203037 0.000000
H842  H     H_    0.829087 0.513233 0.200775 0.000000
H843  H     H_    0.862117 0.499723 0.209106 0.000000
H844  H     H_    0.928622 0.658131 0.124627 0.000000
H845  H     H_    0.921299 0.743997 0.091830 0.000000
H846  H     H_    0.842775 0.700533 0.063155 0.000000
H847  H     H_    0.846770 0.833407 0.099674 0.000000
C848  C     C_3   0.800237 0.441476 0.985737 0.000000
C849  C     C_3   0.780825 0.478756 0.004605 0.000000
C850  C     C_3   0.754060 0.465387 0.987706 0.000000
C851  C     C_R   0.781980 0.483016 0.054664 0.000000
N155  N     N_R   0.768478 0.449519 0.083141 0.000000
C852  C     C_R   0.769712 0.477971 0.121703 0.000000
C853  C     C_R   0.756311 0.468560 0.159383 0.000000
C854  C     C_R   0.760741 0.499914 0.196973 0.000000
C855  C     C_R   0.778750 0.540588 0.196070 0.000000
C856  C     C_R   0.790175 0.553412 0.155599 0.000000
C857  C     C_R   0.784523 0.522203 0.118331 0.000000
N156  N     N_R   0.792836 0.527628 0.076095 0.000000
C858  C     C_2   0.786107 0.567454 0.238526 0.000000
O155  O     O_2   0.773606 0.559902 0.272136 0.000000
O156  O     O_2   0.807218 0.598621 0.241174 0.000000
H848  H     H_    0.792128 0.401161 0.983081 0.000000
H849  H     H_    0.805032 0.456066 0.952358 0.000000
H850  H     H_    0.817612 0.444530 0.007010 0.000000
H851  H     H_    0.787197 0.515390 0.989308 0.000000
H852  H     H_    0.741192 0.500287 0.993006 0.000000
H853  H     H_    0.754763 0.454640 0.951596 0.000000
H854  H     H_    0.746512 0.431865 0.006535 0.000000
H855  H     H_    0.743794 0.435009 0.160153 0.000000
H856  H     H_    0.751180 0.489864 0.227578 0.000000
H857  H     H_    0.803930 0.585474 0.153437 0.000000
H858  H     H_    0.812150 0.615158 0.269399 0.000000
C859  C     C_3   0.768592 0.668614 0.167088 0.000000
C860  C     C_3   0.781316 0.712303 0.142215 0.000000
C861  C     C_3   0.809864 0.714892 0.152743 0.000000
C862  C     C_R   0.776650 0.706539 0.093061 0.000000
N157  N     N_R   0.785325 0.661780 0.068489 0.000000
C863  C     C_R   0.767448 0.659993 0.036085 0.000000
C864  C     C_R   0.762178 0.617163 0.009621 0.000000
C865  C     C_R   0.741932 0.618885 0.980008 0.000000
C866  C     C_R   0.728225 0.665814 0.975415 0.000000
C867  C     C_R   0.733413 0.709230 0.003971 0.000000
C868  C     C_R   0.752298 0.703960 0.036018 0.000000
N158  N     N_R   0.757356 0.736022 0.071734 0.000000
C869  C     C_2   0.708405 0.668110 0.940523 0.000000
O157  O     O_2   0.701949 0.627515 0.920132 0.000000
O158  O     O_2   0.698370 0.715029 0.928773 0.000000
H859  H     H_    0.782225 0.655075 0.192391 0.000000
H860  H     H_    0.751777 0.685200 0.185365 0.000000
H861  H     H_    0.762080 0.636342 0.143982 0.000000
H862  H     H_    0.771292 0.746951 0.156380 0.000000
H863  H     H_    0.818371 0.747304 0.133578 0.000000
H864  H     H_    0.812755 0.723873 0.188834 0.000000
H865  H     H_    0.819394 0.676591 0.143388 0.000000
H866  H     H_    0.772989 0.582738 0.014606 0.000000
H867  H     H_    0.737944 0.584249 0.958917 0.000000
H868  H     H_    0.722253 0.744739 0.002627 0.000000
H869  H     H_    0.686984 0.715965 0.903282 0.000000
C870  C     C_3   0.196855 0.158874 0.284840 0.000000
C871  C     C_3   0.203738 0.205276 0.257020 0.000000
C872  C     C_3   0.197847 0.192332 0.209213 0.000000
C873  C     C_R   0.190552 0.255243 0.273588 0.000000
N159  N     N_R   0.164077 0.260294 0.283125 0.000000
C874  C     C_R   0.163683 0.308678 0.303862 0.000000
C875  C     C_R   0.142721 0.334663 0.320619 0.000000
C876  C     C_R   0.145583 0.381882 0.344416 0.000000
C877  C     C_R   0.169837 0.403816 0.349387 0.000000
C878  C     C_R   0.190633 0.380507 0.327387 0.000000
C879  C     C_R   0.187360 0.331541 0.305932 0.000000
N160  N     N_R   0.205161 0.300206 0.285133 0.000000
C880  C     C_2   0.173805 0.447724 0.381704 0.000000
O159  O     O_2   0.155818 0.476714 0.392760 0.000000
O160  O     O_2   0.196351 0.451140 0.403928 0.000000
H870  H     H_    0.179200 0.140525 0.270921 0.000000
H871  H     H_    0.212820 0.129329 0.283072 0.000000
H872  H     H_    0.193872 0.172547 0.319915 0.000000
H873  H     H_    0.224604 0.210948 0.259732 0.000000
H874  H     H_    0.213306 0.206097 0.187650 0.000000
H875  H     H_    0.195874 0.148867 0.203028 0.000000
H876  H     H_    0.180533 0.215131 0.201655 0.000000
H877  H     H_    0.124882 0.315538 0.318845 0.000000
H878  H     H_    0.129075 0.399442 0.361304 0.000000
H879  H     H_    0.208903 0.400163 0.327759 0.000000
H880  H     H_    0.197840 0.474738 0.429720 0.000000
C881  C     C_3   0.109795 0.207403 0.146332 0.000000
C882  C     C_3   0.127954 0.253732 0.148488 0.000000
C883  C     C_3   0.135202 0.270831 0.103523 0.000000
C884  C     C_R   0.115248 0.295370 0.175173 0.000000
N161  N     N_R   0.105944 0.344095 0.159275 0.000000
C885  C     C_R   0.097333 0.366946 0.198052 0.000000
C886  C     C_R   0.089322 0.418682 0.205908 0.000000
C887  C     C_R   0.082558 0.435559 0.248312 0.000000
C888  C     C_R   0.081689 0.399709 0.282173 0.000000
C889  C     C_R   0.089027 0.347476 0.273689 0.000000
C890  C     C_R   0.099371 0.332863 0.232793 0.000000
N162  N     N_R   0.111639 0.286834 0.220295 0.000000
C891  C     C_2   0.073412 0.417269 0.326989 0.000000
O161  O     O_2   0.065309 0.462532 0.333618 0.000000
O162  O     O_2   0.075561 0.384157 0.361330 0.000000
H881  H     H_    0.090723 0.222624 0.141082 0.000000
H882  H     H_    0.115256 0.177224 0.120340 0.000000
H883  H     H_    0.108095 0.190327 0.179115 0.000000
H884  H     H_    0.145923 0.245076 0.165802 0.000000
H885  H     H_    0.151932 0.297416 0.108745 0.000000
H886  H     H_    0.141284 0.236029 0.082449 0.000000
H887  H     H_    0.118595 0.290805 0.088200 0.000000
H888  H     H_    0.088725 0.446813 0.179986 0.000000
H889  H     H_    0.077093 0.476632 0.254189 0.000000
H890  H     H_    0.086334 0.319417 0.299099 0.000000
H891  H     H_    0.070843 0.396353 0.391046 0.000000
C892  C     C_3   0.570856 0.179190 0.179318 0.000000
C893  C     C_3   0.558428 0.210176 0.217263 0.000000
C894  C     C_3   0.529528 0.213434 0.212340 0.000000
C895  C     C_R   0.566971 0.195502 0.262699 0.000000
N163  N     N_R   0.561230 0.149104 0.285607 0.000000
C896  C     C_R   0.577656 0.153652 0.320230 0.000000
C897  C     C_R   0.587803 0.112454 0.343648 0.000000
C898  C     C_R   0.606575 0.124464 0.375506 0.000000
C899  C     C_R   0.614033 0.177002 0.384091 0.000000
C900  C     C_R   0.606212 0.216314 0.355367 0.000000
C901  C     C_R   0.589263 0.202223 0.321896 0.000000
N164  N     N_R   0.584012 0.229215 0.284912 0.000000
C902  C     C_2   0.631780 0.189903 0.421032 0.000000
O163  O     O_2   0.641618 0.154360 0.442284 0.000000
O164  O     O_2   0.636300 0.241140 0.433034 0.000000
H892  H     H_    0.557080 0.151365 0.162977 0.000000
H893  H     H_    0.577384 0.207685 0.154115 0.000000
H894  H     H_    0.587836 0.158081 0.192303 0.000000
H895  H     H_    0.566993 0.249441 0.213502 0.000000
H896  H     H_    0.520864 0.229899 0.243577 0.000000
H897  H     H_    0.525177 0.239931 0.184514 0.000000
H898  H     H_    0.521714 0.173717 0.203991 0.000000
H899  H     H_    0.581564 0.071972 0.337107 0.000000
H900  H     H_    0.614798 0.092700 0.394620 0.000000
H901  H     H_    0.614721 0.255193 0.356754 0.000000
H902  H     H_    0.647079 0.249603 0.458595 0.000000
C903  C     C_3   0.359869 0.838456 0.917895 0.000000
C904  C     C_3   0.354852 0.815822 0.871809 0.000000
C905  C     C_3   0.375616 0.831997 0.838752 0.000000
C906  C     C_R   0.346896 0.757537 0.871566 0.000000
N165  N     N_R   0.340787 0.738327 0.828683 0.000000
C907  C     C_R   0.314832 0.742717 0.830269 0.000000
C908  C     C_R   0.299447 0.755907 0.794864 0.000000
C909  C     C_R   0.275732 0.779640 0.803031 0.000000
C910  C     C_R   0.269100 0.795802 0.846118 0.000000
C911  C     C_R   0.285857 0.785714 0.880949 0.000000
C912  C     C_R   0.306936 0.752882 0.873378 0.000000
N166  N     N_R   0.327147 0.749658 0.901725 0.000000
C913  C     C_2   0.245089 0.825750 0.854663 0.000000
O165  O     O_2   0.230747 0.836664 0.823885 0.000000
O166  O     O_2   0.238504 0.840340 0.896684 0.000000
H903  H     H_    0.367935 0.806782 0.938042 0.000000
H904  H     H_    0.373109 0.873077 0.916958 0.000000
H905  H     H_    0.341240 0.852174 0.932247 0.000000
H906  H     H_    0.337433 0.837641 0.861648 0.000000
H907  H     H_    0.369868 0.870459 0.824429 0.000000
H908  H     H_    0.394161 0.840985 0.854992 0.000000
H909  H     H_    0.378108 0.801937 0.811353 0.000000
H910  H     H_    0.307025 0.754908 0.761491 0.000000
H911  H     H_    0.263761 0.790342 0.775062 0.000000
H912  H     H_    0.282790 0.803719 0.913642 0.000000
H913  H     H_    0.222512 0.859348 0.902358 0.000000
C914  C     C_3   0.323642 0.698551 0.643406 0.000000
C915  C     C_3   0.351553 0.716086 0.646568 0.000000
C916  C     C_3   0.364729 0.711666 0.601481 0.000000
C917  C     C_R   0.353619 0.768920 0.668391 0.000000
N167  N     N_R   0.350209 0.816748 0.646189 0.000000
C918  C     C_R   0.344000 0.850052 0.680305 0.000000
C919  C     C_R   0.336770 0.902425 0.677237 0.000000
C920  C     C_R   0.328296 0.929286 0.714997 0.000000
C921  C     C_R   0.326828 0.903417 0.755129 0.000000
C922  C     C_R   0.335833 0.851142 0.758020 0.000000
C923  C     C_R   0.344848 0.824769 0.720301 0.000000
N168  N     N_R   0.352374 0.772745 0.714810 0.000000
C924  C     C_2   0.315529 0.931532 0.794269 0.000000
O167  O     O_2   0.322742 0.920775 0.831599 0.000000
O168  O     O_2   0.296973 0.968966 0.789583 0.000000
H914  H     H_    0.311116 0.729271 0.659522 0.000000
H915  H     H_    0.318273 0.689782 0.608242 0.000000
H916  H     H_    0.320894 0.661475 0.661486 0.000000
H917  H     H_    0.360391 0.690938 0.671192 0.000000
H918  H     H_    0.385691 0.718235 0.604266 0.000000
H919  H     H_    0.361586 0.671017 0.587315 0.000000
H920  H     H_    0.356888 0.741034 0.578700 0.000000
H921  H     H_    0.337101 0.922366 0.646260 0.000000
H922  H     H_    0.322529 0.970561 0.712617 0.000000
H923  H     H_    0.333962 0.830596 0.788255 0.000000
H924  H     H_    0.289074 0.975971 0.761139 0.000000
C925  C     C_3   0.696346 0.477015 0.152401 0.000000
C926  C     C_3   0.690293 0.476198 0.103200 0.000000
C927  C     C_3   0.710707 0.502583 0.075592 0.000000
C928  C     C_R   0.685861 0.420867 0.085652 0.000000
N169  N     N_R   0.705593 0.384528 0.073602 0.000000
C929  C     C_R   0.691479 0.346241 0.052036 0.000000
C930  C     C_R   0.699823 0.298997 0.033290 0.000000
C931  C     C_R   0.683286 0.270280 0.005738 0.000000
C932  C     C_R   0.657482 0.283305 0.003178 0.000000
C933  C     C_R   0.648434 0.326781 0.027784 0.000000
C934  C     C_R   0.665804 0.358522 0.051204 0.000000
N170  N     N_R   0.660927 0.404295 0.074413 0.000000
C935  C     C_2   0.640275 0.250787 0.974434 0.000000
O169  O     O_2   0.648591 0.211055 0.954870 0.000000
O170  O     O_2   0.615382 0.264719 0.968940 0.000000
H925  H     H_    0.703716 0.437732 0.162061 0.000000
H926  H     H_    0.709113 0.510720 0.162116 0.000000
H927  H     H_    0.678321 0.482716 0.170756 0.000000
H928  H     H_    0.672350 0.499145 0.099369 0.000000
H929  H     H_    0.702382 0.513920 0.043200 0.000000
H930  H     H_    0.719248 0.537790 0.092993 0.000000
H931  H     H_    0.725671 0.473456 0.067748 0.000000
H932  H     H_    0.719326 0.286110 0.036785 0.000000
H933  H     H_    0.690895 0.238173 0.985234 0.000000
H934  H     H_    0.628484 0.337116 0.027162 0.000000
H935  H     H_    0.604176 0.242897 0.950218 0.000000
C936  C     C_3   0.636908 0.297552 0.131628 0.000000
C937  C     C_3   0.640656 0.329254 0.174615 0.000000
C938  C     C_3   0.662171 0.369502 0.175123 0.000000
C939  C     C_R   0.616252 0.357313 0.180842 0.000000
N171  N     N_R   0.607132 0.391527 0.148310 0.000000
C940  C     C_R   0.581826 0.393124 0.158124 0.000000
C941  C     C_R   0.563733 0.428733 0.143474 0.000000
C942  C     C_R   0.538833 0.424664 0.160152 0.000000
C943  C     C_R   0.531787 0.380917 0.184947 0.000000
C944  C     C_R   0.550554 0.346832 0.199339 0.000000
C945  C     C_R   0.575950 0.357664 0.190379 0.000000
N172  N     N_R   0.597715 0.338219 0.209769 0.000000
C946  C     C_2   0.505520 0.372395 0.201666 0.000000
O171  O     O_2   0.490796 0.409650 0.207621 0.000000
O172  O     O_2   0.498981 0.324679 0.217282 0.000000
H936  H     H_    0.631486 0.324796 0.105660 0.000000
H937  H     H_    0.653708 0.274150 0.121240 0.000000
H938  H     H_    0.620544 0.269707 0.135815 0.000000
H939  H     H_    0.643872 0.301359 0.200857 0.000000
H940  H     H_    0.666160 0.383041 0.209811 0.000000
H941  H     H_    0.680108 0.352682 0.161035 0.000000
H942  H     H_    0.655711 0.404618 0.157040 0.000000
H943  H     H_    0.568973 0.460345 0.121546 0.000000
H944  H     H_    0.524729 0.453984 0.151657 0.000000
H945  H     H_    0.544799 0.316704 0.221291 0.000000
H946  H     H_    0.483956 0.322142 0.235982 0.000000
C947  C     C_3   0.661137 0.601738 0.034777 0.000000
C948  C     C_3   0.635218 0.575390 0.035798 0.000000
C949  C     C_3   0.638755 0.522792 0.014432 0.000000
C950  C     C_R   0.626983 0.569604 0.082400 0.000000
N173  N     N_R   0.624278 0.520182 0.103724 0.000000
C951  C     C_R   0.629263 0.535900 0.146296 0.000000
C952  C     C_R   0.629366 0.505719 0.183844 0.000000
C953  C     C_R   0.642133 0.524657 0.221364 0.000000
C954  C     C_R   0.657363 0.569558 0.218352 0.000000
C955  C     C_R   0.654897 0.601287 0.181537 0.000000
C956  C     C_R   0.636988 0.587861 0.148887 0.000000
N174  N     N_R   0.631802 0.613308 0.110351 0.000000
C957  C     C_2   0.677043 0.581462 0.252559 0.000000
O173  O     O_2   0.677372 0.556912 0.287045 0.000000
O174  O     O_2   0.695582 0.617702 0.245141 0.000000
H947  H     H_    0.674353 0.579617 0.056210 0.000000
H948  H     H_    0.668663 0.601836 0.000211 0.000000
H949  H     H_    0.659629 0.642713 0.048036 0.000000
H950  H     H_    0.621073 0.599532 0.017958 0.000000
H951  H     H_    0.621233 0.501992 0.023652 0.000000
H952  H     H_    0.640581 0.528111 0.978072 0.000000
H953  H     H_    0.655997 0.502101 0.027298 0.000000
H954  H     H_    0.620433 0.468027 0.185118 0.000000
H955  H     H_    0.643079 0.499947 0.250244 0.000000
H956  H     H_    0.668130 0.633052 0.177913 0.000000
H957  H     H_    0.709009 0.624220 0.267046 0.000000
C958  C     C_3   0.610300 0.674674 0.210929 0.000000
C959  C     C_3   0.622855 0.727506 0.221969 0.000000
C960  C     C_3   0.651352 0.721300 0.217320 0.000000
C961  C     C_R   0.613833 0.766392 0.189777 0.000000
N175  N     N_R   0.613370 0.755759 0.144032 0.000000
C962  C     C_R   0.600889 0.799396 0.130094 0.000000
C963  C     C_R   0.595865 0.811823 0.087434 0.000000
C964  C     C_R   0.582776 0.857520 0.077942 0.000000
C965  C     C_R   0.572864 0.888661 0.112361 0.000000
C966  C     C_R   0.576577 0.873636 0.156282 0.000000
C967  C     C_R   0.592980 0.831726 0.164385 0.000000
N176  N     N_R   0.602038 0.813969 0.203480 0.000000
C968  C     C_2   0.559503 0.938095 0.101571 0.000000
O175  O     O_2   0.558559 0.952479 0.063136 0.000000
O176  O     O_2   0.550465 0.970530 0.134092 0.000000
H958  H     H_    0.613890 0.666020 0.175904 0.000000
H959  H     H_    0.617610 0.643432 0.233061 0.000000
H960  H     H_    0.589284 0.675481 0.212537 0.000000
H961  H     H_    0.617833 0.741870 0.255713 0.000000
H962  H     H_    0.655026 0.715033 0.181828 0.000000
H963  H     H_    0.661460 0.757442 0.227592 0.000000
H964  H     H_    0.658353 0.688423 0.237803 0.000000
H965  H     H_    0.601788 0.786073 0.062054 0.000000
H966  H     H_    0.579676 0.867244 0.043469 0.000000
H967  H     H_    0.566519 0.893600 0.183108 0.000000
H968  H     H_    0.544865 0.005567 0.125904 0.000000
C969  C     C_3   0.706857 0.654150 0.094763 0.000000
C970  C     C_3   0.690652 0.699418 0.113334 0.000000
C971  C     C_3   0.705019 0.725235 0.152329 0.000000
C972  C     C_R   0.682298 0.738224 0.079732 0.000000
N177  N     N_R   0.697311 0.779553 0.065711 0.000000
C973  C     C_R   0.680871 0.808780 0.042162 0.000000
C974  C     C_R   0.685349 0.858851 0.026639 0.000000
C975  C     C_R   0.666440 0.883830 0.002739 0.000000
C976  C     C_R   0.643532 0.857760 0.993826 0.000000
C977  C     C_R   0.638839 0.808714 0.012487 0.000000
C978  C     C_R   0.657343 0.785356 0.039601 0.000000
N178  N     N_R   0.656952 0.740933 0.065506 0.000000
C979  C     C_2   0.624046 0.883866 0.965943 0.000000
O177  O     O_2   0.623721 0.932404 0.964269 0.000000
O178  O     O_2   0.607286 0.855230 0.940507 0.000000
H969  H     H_    0.727232 0.660076 0.103641 0.000000
H970  H     H_    0.700460 0.617316 0.110799 0.000000
H971  H     H_    0.704706 0.650495 0.058299 0.000000
H972  H     H_    0.672516 0.681614 0.123627 0.000000
H973  H     H_    0.694022 0.758339 0.167520 0.000000
H974  H     H_    0.708058 0.695054 0.178091 0.000000
H975  H     H_    0.723796 0.740821 0.141227 0.000000
H976  H     H_    0.702777 0.879949 0.034571 0.000000
H977  H     H_    0.670106 0.922990 0.990038 0.000000
H978  H     H_    0.620946 0.790936 0.004186 0.000000
H979  H     H_    0.608318 0.816916 0.937425 0.000000
C980  C     C_3   0.871893 0.859191 0.517298 0.000000
C981  C     C_3   0.867086 0.895489 0.479248 0.000000
C982  C     C_3   0.867040 0.859174 0.439462 0.000000
C983  C     C_R   0.841700 0.925212 0.485748 0.000000
N179  N     N_R   0.822003 0.928620 0.453746 0.000000
C984  C     C_R   0.801390 0.941298 0.480084 0.000000
C985  C     C_R   0.776394 0.953065 0.468599 0.000000
C986  C     C_R   0.757772 0.955339 0.501584 0.000000
C987  C     C_R   0.764589 0.947035 0.545593 0.000000
C988  C     C_R   0.790453 0.944883 0.557141 0.000000
C989  C     C_R   0.808283 0.945154 0.523652 0.000000
N180  N     N_R   0.833789 0.940522 0.528443 0.000000
C990  C     C_2   0.744645 0.938005 0.579068 0.000000
O179  O     O_2   0.722073 0.948415 0.571180 0.000000
O180  O     O_2   0.750963 0.914299 0.617319 0.000000
H980  H     H_    0.858863 0.824201 0.515036 0.000000
H981  H     H_    0.892274 0.845497 0.517613 0.000000
H982  H     H_    0.868025 0.882090 0.547535 0.000000
H983  H     H_    0.883554 0.922410 0.477121 0.000000
H984  H     H_    0.869820 0.882980 0.410009 0.000000
H985  H     H_    0.883405 0.830600 0.441207 0.000000
H986  H     H_    0.848703 0.837151 0.440361 0.000000
H987  H     H_    0.771167 0.962278 0.435384 0.000000
H988  H     H_    0.737779 0.960990 0.492181 0.000000
H989  H     H_    0.796709 0.937635 0.590647 0.000000
H990  H     H_    0.737670 0.905721 0.638468 0.000000
C991  C     C_3   0.855106 0.989376 0.293858 0.000000
C992  C     C_3   0.873514 0.942889 0.289591 0.000000
C993  C     C_3   0.894827 0.949806 0.318933 0.000000
C994  C     C_R   0.865015 0.892538 0.306394 0.000000
N181  N     N_R   0.846143 0.887420 0.339752 0.000000
C995  C     C_R   0.847661 0.833865 0.344712 0.000000
C996  C     C_R   0.831416 0.802436 0.368461 0.000000
C997  C     C_R   0.839452 0.750984 0.377178 0.000000
C998  C     C_R   0.863373 0.732152 0.362075 0.000000
C999  C     C_R   0.878083 0.762515 0.333819 0.000000
C1000 C     C_R   0.869080 0.812089 0.323613 0.000000
N182  N     N_R   0.880932 0.847863 0.298177 0.000000
C1001 C     C_2   0.873456 0.680905 0.377039 0.000000
O181  O     O_2   0.861441 0.655520 0.404086 0.000000
O182  O     O_2   0.896515 0.662661 0.362320 0.000000
H991  H     H_    0.839736 0.980875 0.317525 0.000000
H992  H     H_    0.864933 0.026306 0.305327 0.000000
H993  H     H_    0.847463 0.997259 0.260345 0.000000
H994  H     H_    0.881287 0.939271 0.256370 0.000000
H995  H     H_    0.909508 0.919000 0.313905 0.000000
H996  H     H_    0.901977 0.990384 0.316336 0.000000
H997  H     H_    0.886378 0.938223 0.350174 0.000000
H998  H     H_    0.813947 0.818503 0.382834 0.000000
H999  H     H_    0.827568 0.726928 0.398245 0.000000
H1000 H     H_    0.896509 0.748728 0.321342 0.000000
H1001 H     H_    0.903316 0.629300 0.372752 0.000000
C1002 C     C_3   0.821000 0.116261 0.525108 0.000000
C1003 C     C_3   0.847233 0.095630 0.538668 0.000000
C1004 C     C_3   0.867660 0.132676 0.526191 0.000000
C1005 C     C_R   0.849471 0.091329 0.586641 0.000000
N183  N     N_R   0.842956 0.138357 0.608618 0.000000
C1006 C     C_R   0.820834 0.124468 0.628195 0.000000
C1007 C     C_R   0.801703 0.158720 0.641832 0.000000
C1008 C     C_R   0.778623 0.137740 0.655599 0.000000
C1009 C     C_R   0.774782 0.082937 0.653957 0.000000
C1010 C     C_R   0.794046 0.048951 0.637286 0.000000
C1011 C     C_R   0.817247 0.070562 0.624568 0.000000
N184  N     N_R   0.837465 0.046913 0.602427 0.000000
C1012 C     C_2   0.749905 0.061758 0.668779 0.000000
O183  O     O_2   0.732659 0.092185 0.680700 0.000000
O184  O     O_2   0.746065 0.008864 0.670182 0.000000
H1002 H     H_    0.815170 0.153181 0.542841 0.000000
H1003 H     H_    0.821470 0.123609 0.488955 0.000000
H1004 H     H_    0.806428 0.085902 0.533216 0.000000
H1005 H     H_    0.848253 0.056222 0.523145 0.000000
H1006 H     H_    0.884819 0.118529 0.542835 0.000000
H1007 H     H_    0.868214 0.137248 0.489807 0.000000
H1008 H     H_    0.865862 0.170448 0.543205 0.000000
H1009 H     H_    0.804689 0.200987 0.641608 0.000000
H1010 H     H_    0.763611 0.164760 0.667235 0.000000
H1011 H     H_    0.790429 0.007423 0.632853 0.000000
H1012 H     H_    0.729741 0.995393 0.680545 0.000000
C1013 C     C_3   0.810485 0.226472 0.732700 0.000000
C1014 C     C_3   0.839559 0.226267 0.726334 0.000000
C1015 C     C_3   0.850015 0.174252 0.709717 0.000000
C1016 C     C_R   0.847677 0.272082 0.699211 0.000000
N185  N     N_R   0.845549 0.273127 0.652836 0.000000
C1017 C     C_R   0.838669 0.325043 0.646952 0.000000
C1018 C     C_R   0.832761 0.351232 0.608449 0.000000
C1019 C     C_R   0.823568 0.403031 0.611207 0.000000
C1020 C     C_R   0.820082 0.428509 0.652334 0.000000
C1021 C     C_R   0.827220 0.402674 0.690532 0.000000
C1022 C     C_R   0.837669 0.352421 0.686654 0.000000
N186  N     N_R   0.845317 0.321457 0.719837 0.000000
C1023 C     C_2   0.809489 0.482933 0.655481 0.000000
O185  O     O_2   0.803234 0.505907 0.621814 0.000000
O186  O     O_2   0.806770 0.507904 0.695565 0.000000
H1013 H     H_    0.800875 0.250998 0.707301 0.000000
H1014 H     H_    0.802164 0.185909 0.732766 0.000000
H1015 H     H_    0.806796 0.244447 0.765909 0.000000
H1016 H     H_    0.847487 0.232764 0.759379 0.000000
H1017 H     H_    0.866414 0.163240 0.731430 0.000000
H1018 H     H_    0.835806 0.141703 0.709692 0.000000
H1019 H     H_    0.856138 0.181143 0.675852 0.000000
H1020 H     H_    0.834936 0.332982 0.576302 0.000000
H1021 H     H_    0.818664 0.422836 0.580778 0.000000
H1022 H     H_    0.824417 0.421556 0.722450 0.000000
H1023 H     H_    0.799972 0.543837 0.697582 0.000000
C1024 C     C_3   0.903078 0.147610 0.671685 0.000000
C1025 C     C_3   0.923635 0.146699 0.637659 0.000000
C1026 C     C_3   0.924591 0.092560 0.617056 0.000000
C1027 C     C_R   0.921947 0.191991 0.606704 0.000000
N187  N     N_R   0.898977 0.220347 0.597495 0.000000
C1028 C     C_R   0.909060 0.267841 0.586794 0.000000
C1029 C     C_R   0.895761 0.313558 0.580365 0.000000
C1030 C     C_R   0.909088 0.360304 0.573159 0.000000
C1031 C     C_R   0.935810 0.361510 0.578280 0.000000
C1032 C     C_R   0.949043 0.314632 0.587020 0.000000
C1033 C     C_R   0.935372 0.267894 0.588009 0.000000
N188  N     N_R   0.944742 0.219652 0.597739 0.000000
C1034 C     C_2   0.949344 0.412907 0.579804 0.000000
O187  O     O_2   0.971607 0.415578 0.593145 0.000000
O188  O     O_2   0.936913 0.457750 0.568278 0.000000
H1024 H     H_    0.886912 0.122527 0.659121 0.000000
H1025 H     H_    0.910644 0.130695 0.702821 0.000000
H1026 H     H_    0.897331 0.189470 0.677435 0.000000
H1027 H     H_    0.942023 0.151470 0.654332 0.000000
H1028 H     H_    0.943783 0.088137 0.602144 0.000000
H1029 H     H_    0.923099 0.063395 0.643586 0.000000
H1030 H     H_    0.908313 0.086543 0.594039 0.000000
H1031 H     H_    0.875441 0.312498 0.582932 0.000000
H1032 H     H_    0.898257 0.396658 0.568448 0.000000
H1033 H     H_    0.969461 0.314242 0.593311 0.000000
H1034 H     H_    0.945743 0.491640 0.570105 0.000000
C1035 C     C_3   0.873508 0.236952 0.436172 0.000000
C1036 C     C_3   0.870138 0.253362 0.483197 0.000000
C1037 C     C_3   0.870157 0.313978 0.487703 0.000000
C1038 C     C_R   0.844197 0.234500 0.493798 0.000000
N189  N     N_R   0.824819 0.240522 0.461994 0.000000
C1039 C     C_R   0.806109 0.262733 0.487751 0.000000
C1040 C     C_R   0.787512 0.298366 0.474799 0.000000
C1041 C     C_R   0.770695 0.318717 0.506856 0.000000
C1042 C     C_R   0.773453 0.305127 0.551311 0.000000
C1043 C     C_R   0.794464 0.274726 0.564309 0.000000
C1044 C     C_R   0.811743 0.257964 0.532120 0.000000
N190  N     N_R   0.836267 0.240253 0.537742 0.000000
C1045 C     C_2   0.755286 0.326175 0.584996 0.000000
O189  O     O_2   0.736970 0.353610 0.573949 0.000000
O190  O     O_2   0.758739 0.315264 0.628303 0.000000
H1035 H     H_    0.892665 0.243665 0.422362 0.000000
H1036 H     H_    0.866737 0.195761 0.432462 0.000000
H1037 H     H_    0.860808 0.262839 0.418830 0.000000
H1038 H     H_    0.884990 0.236146 0.504713 0.000000
H1039 H     H_    0.861016 0.327896 0.518649 0.000000
H1040 H     H_    0.890193 0.329267 0.485825 0.000000
H1041 H     H_    0.857761 0.332339 0.462712 0.000000
H1042 H     H_    0.785788 0.309759 0.440459 0.000000
H1043 H     H_    0.755295 0.345006 0.496690 0.000000
H1044 H     H_    0.798365 0.268656 0.598951 0.000000
H1045 H     H_    0.746792 0.329255 0.650432 0.000000
C1046 C     C_3   0.858427 0.666271 0.718413 0.000000
C1047 C     C_3   0.873895 0.699258 0.753164 0.000000
C1048 C     C_3   0.884682 0.747200 0.731233 0.000000
C1049 C     C_R   0.858178 0.711216 0.794238 0.000000
N191  N     N_R   0.845739 0.667112 0.811976 0.000000
C1050 C     C_R   0.820849 0.679078 0.803205 0.000000
C1051 C     C_R   0.801728 0.642784 0.793838 0.000000
C1052 C     C_R   0.778345 0.660385 0.777463 0.000000
C1053 C     C_R   0.775303 0.713176 0.765835 0.000000
C1054 C     C_R   0.796069 0.747735 0.769643 0.000000
C1055 C     C_R   0.818486 0.730586 0.789679 0.000000
N192  N     N_R   0.841950 0.754336 0.788835 0.000000
C1056 C     C_2   0.751075 0.730907 0.745272 0.000000
O191  O     O_2   0.748644 0.776938 0.733817 0.000000
O192  O     O_2   0.731322 0.696589 0.739263 0.000000
H1046 H     H_    0.868739 0.662855 0.686138 0.000000
H1047 H     H_    0.853605 0.625985 0.729074 0.000000
H1048 H     H_    0.839551 0.683755 0.712893 0.000000
H1049 H     H_    0.891153 0.679587 0.762754 0.000000
H1050 H     H_    0.871100 0.780385 0.728994 0.000000
H1051 H     H_    0.901679 0.758477 0.751070 0.000000
H1052 H     H_    0.891460 0.736272 0.697195 0.000000
H1053 H     H_    0.805734 0.601063 0.794120 0.000000
H1054 H     H_    0.763236 0.631622 0.770608 0.000000
H1055 H     H_    0.795424 0.785413 0.753339 0.000000
H1056 H     H_    0.715386 0.708453 0.725828 0.000000
C1057 C     C_3   0.874794 0.492837 0.718326 0.000000
C1058 C     C_3   0.879919 0.467458 0.762775 0.000000
C1059 C     C_3   0.907101 0.471977 0.780229 0.000000
C1060 C     C_R   0.858738 0.472609 0.796702 0.000000
N193  N     N_R   0.848077 0.518624 0.818204 0.000000
C1061 C     C_R   0.823885 0.501175 0.826769 0.000000
C1062 C     C_R   0.804015 0.528116 0.847940 0.000000
C1063 C     C_R   0.779597 0.505975 0.846766 0.000000
C1064 C     C_R   0.775094 0.458840 0.822592 0.000000
C1065 C     C_R   0.795684 0.431347 0.803324 0.000000
C1066 C     C_R   0.820345 0.450325 0.810884 0.000000
N194  N     N_R   0.842959 0.428788 0.796818 0.000000
C1067 C     C_2   0.748681 0.438189 0.817637 0.000000
O193  O     O_2   0.730763 0.460720 0.836727 0.000000
O194  O     O_2   0.744066 0.394337 0.791929 0.000000
H1057 H     H_    0.861764 0.527807 0.721684 0.000000
H1058 H     H_    0.893215 0.501005 0.701233 0.000000
H1059 H     H_    0.865529 0.463351 0.695946 0.000000
H1060 H     H_    0.878454 0.425444 0.751865 0.000000
H1061 H     H_    0.918317 0.438169 0.767682 0.000000
H1062 H     H_    0.917851 0.503081 0.765321 0.000000
H1063 H     H_    0.907171 0.475261 0.816811 0.000000
H1064 H     H_    0.806490 0.567237 0.862507 0.000000
H1065 H     H_    0.763828 0.527869 0.862315 0.000000
H1066 H     H_    0.792643 0.395837 0.782861 0.000000
H1067 H     H_    0.726681 0.380697 0.788966 0.000000
C1068 C     C_3   0.892976 0.650002 0.941490 0.000000
C1069 C     C_3   0.919796 0.638204 0.925978 0.000000
C1070 C     C_3   0.933497 0.611317 0.964178 0.000000
C1071 C     C_R   0.920265 0.608644 0.881181 0.000000
N195  N     N_R   0.897893 0.599630 0.855879 0.000000
C1072 C     C_R   0.907665 0.589880 0.815526 0.000000
C1073 C     C_R   0.893688 0.587659 0.777486 0.000000
C1074 C     C_R   0.906353 0.591344 0.737217 0.000000
C1075 C     C_R   0.932784 0.595026 0.735710 0.000000
C1076 C     C_R   0.946791 0.596724 0.775952 0.000000
C1077 C     C_R   0.933673 0.591470 0.815385 0.000000
N196  N     N_R   0.943041 0.599967 0.856828 0.000000
C1078 C     C_2   0.944807 0.596233 0.691026 0.000000
O195  O     O_2   0.931948 0.584891 0.657989 0.000000
O196  O     O_2   0.969604 0.610353 0.685758 0.000000
H1068 H     H_    0.883985 0.615331 0.955253 0.000000
H1069 H     H_    0.894598 0.677593 0.970578 0.000000
H1070 H     H_    0.881204 0.665536 0.913897 0.000000
H1071 H     H_    0.928675 0.677490 0.921477 0.000000
H1072 H     H_    0.949695 0.586272 0.951760 0.000000
H1073 H     H_    0.940074 0.641713 0.988745 0.000000
H1074 H     H_    0.920101 0.588377 0.984497 0.000000
H1075 H     H_    0.873156 0.586213 0.779257 0.000000
H1076 H     H_    0.895335 0.591796 0.706756 0.000000
H1077 H     H_    0.967444 0.601471 0.776368 0.000000
H1078 H     H_    0.976875 0.611080 0.656174 0.000000
C1079 C     C_3   0.279759 0.271322 0.356275 0.000000
C1080 C     C_3   0.273665 0.216240 0.343016 0.000000
C1081 C     C_3   0.245288 0.206736 0.350835 0.000000
C1082 C     C_R   0.279172 0.213709 0.295199 0.000000
N197  N     N_R   0.268449 0.251305 0.266523 0.000000
C1083 C     C_R   0.271122 0.225093 0.226979 0.000000
C1084 C     C_R   0.262078 0.240423 0.186195 0.000000
C1085 C     C_R   0.258838 0.201787 0.153058 0.000000
C1086 C     C_R   0.259966 0.148544 0.164115 0.000000
C1087 C     C_R   0.269338 0.135037 0.205680 0.000000
C1088 C     C_R   0.280230 0.174304 0.232665 0.000000
N198  N     N_R   0.289357 0.167752 0.274664 0.000000
C1089 C     C_2   0.250177 0.107350 0.132697 0.000000
O197  O     O_2   0.241904 0.119710 0.096310 0.000000
O198  O     O_2   0.250238 0.055752 0.143783 0.000000
H1079 H     H_    0.265740 0.292074 0.337249 0.000000
H1080 H     H_    0.277261 0.277802 0.392488 0.000000
H1081 H     H_    0.298087 0.284630 0.341906 0.000000
H1082 H     H_    0.284677 0.187555 0.362145 0.000000
H1083 H     H_    0.240347 0.166361 0.338661 0.000000
H1084 H     H_    0.240765 0.211800 0.386790 0.000000
H1085 H     H_    0.233444 0.234477 0.331892 0.000000
H1086 H     H_    0.256555 0.280449 0.179753 0.000000
H1087 H     H_    0.251505 0.213468 0.120993 0.000000
H1088 H     H_    0.267884 0.094736 0.217004 0.000000
H1089 H     H_    0.244046 0.028803 0.122752 0.000000
C1090 C     C_3   0.302766 0.004647 0.399985 0.000000
C1091 C     C_3   0.330199 0.013588 0.412317 0.000000
C1092 C     C_3   0.348082 0.970366 0.395451 0.000000
C1093 C     C_R   0.337385 0.068822 0.402113 0.000000
N199  N     N_R   0.330367 0.099113 0.363810 0.000000
C1094 C     C_R   0.332829 0.148712 0.382314 0.000000
C1095 C     C_R   0.332149 0.197640 0.362948 0.000000
C1096 C     C_R   0.331780 0.241886 0.391509 0.000000
C1097 C     C_R   0.323764 0.235367 0.435021 0.000000
C1098 C     C_R   0.326273 0.186319 0.453164 0.000000
C1099 C     C_R   0.337075 0.147302 0.426975 0.000000
N200  N     N_R   0.343563 0.098714 0.440127 0.000000
C1100 C     C_2   0.312282 0.278996 0.460945 0.000000
O199  O     O_2   0.304072 0.271929 0.498292 0.000000
O200  O     O_2   0.307851 0.325437 0.441703 0.000000
H1090 H     H_    0.302436 0.007978 0.363978 0.000000
H1091 H     H_    0.295553 0.965573 0.409984 0.000000
H1092 H     H_    0.291029 0.036000 0.416896 0.000000
H1093 H     H_    0.331097 0.011884 0.448984 0.000000
H1094 H     H_    0.361371 0.958746 0.422426 0.000000
H1095 H     H_    0.335986 0.935669 0.387556 0.000000
H1096 H     H_    0.359177 0.982051 0.366275 0.000000
H1097 H     H_    0.330614 0.202655 0.327518 0.000000
H1098 H     H_    0.333223 0.281228 0.378161 0.000000
H1099 H     H_    0.318561 0.177886 0.485161 0.000000
H1100 H     H_    0.297883 0.351252 0.458335 0.000000
C1101 C     C_3   0.321464 0.972947 0.207302 0.000000
C1102 C     C_3   0.292259 0.976238 0.208240 0.000000
C1103 C     C_3   0.281225 0.929729 0.181540 0.000000
C1104 C     C_R   0.281639 0.985853 0.254806 0.000000
N201  N     N_R   0.259892 0.959341 0.271873 0.000000
C1105 C     C_R   0.252175 0.995769 0.303667 0.000000
C1106 C     C_R   0.230071 0.997037 0.328843 0.000000
C1107 C     C_R   0.227385 0.035456 0.362358 0.000000
C1108 C     C_R   0.246943 0.071072 0.371781 0.000000
C1109 C     C_R   0.267233 0.074419 0.342252 0.000000
C1110 C     C_R   0.269287 0.036620 0.308506 0.000000
N202  N     N_R   0.288975 0.031869 0.279796 0.000000
C1111 C     C_2   0.246257 0.103750 0.413249 0.000000
O201  O     O_2   0.226934 0.104576 0.436439 0.000000
O202  O     O_2   0.267353 0.131015 0.426940 0.000000
H1101 H     H_    0.328271 0.934764 0.219914 0.000000
H1102 H     H_    0.328132 0.976888 0.172486 0.000000
H1103 H     H_    0.329941 0.004851 0.228587 0.000000
H1104 H     H_    0.286372 0.010994 0.189143 0.000000
H1105 H     H_    0.275840 0.943551 0.147972 0.000000
H1106 H     H_    0.295777 0.897662 0.177081 0.000000
H1107 H     H_    0.263966 0.914850 0.197488 0.000000
H1108 H     H_    0.214240 0.971507 0.322099 0.000000
H1109 H     H_    0.210017 0.037049 0.381800 0.000000
H1110 H     H_    0.282434 0.102567 0.347719 0.000000
H1111 H     H_    0.266993 0.151777 0.454560 0.000000
C1112 C     C_3   0.407755 0.019983 0.428866 0.000000
C1113 C     C_3   0.422380 0.070693 0.439501 0.000000
C1114 C     C_3   0.410942 0.112934 0.411625 0.000000
C1115 C     C_R   0.423252 0.083036 0.488159 0.000000
N203  N     N_R   0.401104 0.088219 0.514525 0.000000
C1116 C     C_R   0.411915 0.093711 0.555832 0.000000
C1117 C     C_R   0.400330 0.111366 0.595047 0.000000
C1118 C     C_R   0.415133 0.113858 0.633684 0.000000
C1119 C     C_R   0.441247 0.100123 0.632640 0.000000
C1120 C     C_R   0.453145 0.088879 0.591996 0.000000
C1121 C     C_R   0.438264 0.089482 0.554109 0.000000
N204  N     N_R   0.446813 0.084505 0.511904 0.000000
C1122 C     C_2   0.456547 0.099893 0.673900 0.000000
O203  O     O_2   0.446669 0.112932 0.709435 0.000000
O204  O     O_2   0.481506 0.084433 0.672774 0.000000
H1112 H     H_    0.388050 0.024532 0.442496 0.000000
H1113 H     H_    0.406160 0.013638 0.392421 0.000000
H1114 H     H_    0.417669 0.985127 0.442706 0.000000
H1115 H     H_    0.442316 0.068798 0.429325 0.000000
H1116 H     H_    0.418184 0.152290 0.421557 0.000000
H1117 H     H_    0.417512 0.104364 0.377070 0.000000
H1118 H     H_    0.389757 0.111470 0.412986 0.000000
H1119 H     H_    0.380049 0.120749 0.596731 0.000000
H1120 H     H_    0.405866 0.125212 0.664782 0.000000
H1121 H     H_    0.473714 0.081844 0.589693 0.000000
H1122 H     H_    0.491503 0.083668 0.700000 0.000000
C1123 C     C_3   0.402576 0.217599 0.542668 0.000000
C1124 C     C_3   0.379997 0.227729 0.516499 0.000000
C1125 C     C_3   0.383611 0.208388 0.469777 0.000000
C1126 C     C_R   0.358598 0.210195 0.540506 0.000000
N205  N     N_R   0.348662 0.159191 0.543538 0.000000
C1127 C     C_R   0.328223 0.169215 0.570454 0.000000
C1128 C     C_R   0.311238 0.133431 0.587324 0.000000
C1129 C     C_R   0.289970 0.152875 0.610524 0.000000
C1130 C     C_R   0.286140 0.207623 0.616672 0.000000
C1131 C     C_R   0.304442 0.243148 0.601633 0.000000
C1132 C     C_R   0.325984 0.222946 0.580361 0.000000
N206  N     N_R   0.346454 0.249887 0.564341 0.000000
C1133 C     C_2   0.263377 0.227879 0.640981 0.000000
O205  O     O_2   0.247305 0.196972 0.654732 0.000000
O206  O     O_2   0.260235 0.280709 0.648569 0.000000
H1123 H     H_    0.397496 0.216809 0.578238 0.000000
H1124 H     H_    0.409021 0.180369 0.529763 0.000000
H1125 H     H_    0.418267 0.244045 0.535065 0.000000
H1126 H     H_    0.375252 0.268959 0.519636 0.000000
H1127 H     H_    0.372151 0.232023 0.446755 0.000000
H1128 H     H_    0.403655 0.216247 0.460634 0.000000
H1129 H     H_    0.379689 0.165551 0.468472 0.000000
H1130 H     H_    0.315041 0.091497 0.584798 0.000000
H1131 H     H_    0.276464 0.124785 0.623962 0.000000
H1132 H     H_    0.302002 0.285309 0.606882 0.000000
H1133 H     H_    0.245346 0.293930 0.664870 0.000000
C1134 C     C_3   0.393292 0.956531 0.521301 0.000000
C1135 C     C_3   0.380902 0.960100 0.565397 0.000000
C1136 C     C_3   0.386353 0.999303 0.602845 0.000000
C1137 C     C_R   0.355205 0.966978 0.554565 0.000000
N207  N     N_R   0.343691 0.012202 0.536686 0.000000
C1138 C     C_R   0.318565 0.997864 0.540579 0.000000
C1139 C     C_R   0.297051 0.025082 0.526689 0.000000
C1140 C     C_R   0.273034 0.004578 0.537170 0.000000
C1141 C     C_R   0.270855 0.956899 0.559847 0.000000
C1142 C     C_R   0.292749 0.927483 0.570051 0.000000
C1143 C     C_R   0.316334 0.948348 0.559667 0.000000
N208  N     N_R   0.339802 0.926231 0.566325 0.000000
C1144 C     C_2   0.245397 0.937931 0.573688 0.000000
O207  O     O_2   0.226512 0.966947 0.571231 0.000000
O208  O     O_2   0.242883 0.888901 0.590323 0.000000
H1134 H     H_    0.396759 0.996187 0.510517 0.000000
H1135 H     H_    0.409808 0.929550 0.522633 0.000000
H1136 H     H_    0.379574 0.938407 0.497135 0.000000
H1137 H     H_    0.381720 0.921591 0.580015 0.000000
H1138 H     H_    0.381535 0.980363 0.634536 0.000000
H1139 H     H_    0.406499 0.011732 0.604565 0.000000
H1140 H     H_    0.372311 0.032237 0.601215 0.000000
H1141 H     H_    0.298748 0.062315 0.509616 0.000000
H1142 H     H_    0.255926 0.026666 0.528028 0.000000
H1143 H     H_    0.291554 0.890269 0.586946 0.000000
H1144 H     H_    0.226130 0.876584 0.599672 0.000000
C1145 C     C_3   0.951998 0.707508 0.745606 0.000000
C1146 C     C_3   0.953064 0.728468 0.792808 0.000000
C1147 C     C_3   0.933836 0.713345 0.826888 0.000000
C1148 C     C_R   0.979213 0.724594 0.809129 0.000000
N209  N     N_R   0.992184 0.679566 0.825529 0.000000
C1149 C     C_R   0.016712 0.697783 0.825254 0.000000
C1150 C     C_R   0.038047 0.674817 0.843962 0.000000
C1151 C     C_R   0.061720 0.699275 0.838514 0.000000
C1152 C     C_R   0.063644 0.745998 0.814681 0.000000
C1153 C     C_R   0.041452 0.771378 0.799906 0.000000
C1154 C     C_R   0.018081 0.747905 0.807836 0.000000
N210  N     N_R   0.994263 0.767826 0.800190 0.000000
C1155 C     C_2   0.089061 0.769551 0.806682 0.000000
O209  O     O_2   0.108655 0.746584 0.818341 0.000000
O210  O     O_2   0.090910 0.816144 0.785707 0.000000
H1145 H     H_    0.967619 0.678201 0.741507 0.000000
H1146 H     H_    0.932448 0.695018 0.735697 0.000000
H1147 H     H_    0.957895 0.738454 0.722731 0.000000
H1148 H     H_    0.950384 0.769961 0.788333 0.000000
H1149 H     H_    0.944396 0.693520 0.852929 0.000000
H1150 H     H_    0.926239 0.749014 0.843379 0.000000
H1151 H     H_    0.917654 0.690994 0.813239 0.000000
H1152 H     H_    0.036417 0.639493 0.863314 0.000000
H1153 H     H_    0.078732 0.681133 0.852712 0.000000
H1154 H     H_    0.042349 0.808688 0.783385 0.000000
H1155 H     H_    0.107683 0.831459 0.780292 0.000000
C1156 C     C_3   0.996024 0.518070 0.722138 0.000000
C1157 C     C_3   0.974081 0.490489 0.746159 0.000000
C1158 C     C_3   0.966599 0.442617 0.718474 0.000000
C1159 C     C_R   0.980985 0.481351 0.794172 0.000000
N211  N     N_R   0.994464 0.433764 0.798816 0.000000
C1160 C     C_R   0.017818 0.452615 0.812289 0.000000
C1161 C     C_R   0.041056 0.427082 0.808027 0.000000
C1162 C     C_R   0.063101 0.457232 0.803280 0.000000
C1163 C     C_R   0.061908 0.512348 0.804493 0.000000
C1164 C     C_R   0.038543 0.537426 0.812885 0.000000
C1165 C     C_R   0.017046 0.506830 0.819280 0.000000
N212  N     N_R   0.992904 0.525465 0.815998 0.000000
C1166 C     C_2   0.084953 0.543624 0.794076 0.000000
O211  O     O_2   0.105753 0.521469 0.788344 0.000000
O212  O     O_2   0.083224 0.596864 0.790323 0.000000
H1156 H     H_    0.014043 0.494961 0.725276 0.000000
H1157 H     H_    0.991428 0.520594 0.686156 0.000000
H1158 H     H_    0.999534 0.558712 0.736170 0.000000
H1159 H     H_    0.956764 0.512615 0.744264 0.000000
H1160 H     H_    0.962307 0.408465 0.738860 0.000000
H1161 H     H_    0.949233 0.454842 0.699759 0.000000
H1162 H     H_    0.981154 0.433201 0.692923 0.000000
H1163 H     H_    0.041999 0.385372 0.802902 0.000000
H1164 H     H_    0.080809 0.437478 0.793737 0.000000
H1165 H     H_    0.036326 0.579398 0.808570 0.000000
H1166 H     H_    0.098411 0.617291 0.783337 0.000000
C1167 C     C_3   0.894358 0.962424 0.666775 0.000000
C1168 C     C_3   0.910809 0.924277 0.638413 0.000000
C1169 C     C_3   0.899735 0.869532 0.627288 0.000000
C1170 C     C_R   0.913227 0.950344 0.597989 0.000000
N213  N     N_R   0.891615 0.966417 0.574924 0.000000
C1171 C     C_R   0.902951 0.993295 0.542634 0.000000
C1172 C     C_R   0.892415 0.016983 0.507298 0.000000
C1173 C     C_R   0.906149 0.058430 0.491329 0.000000
C1174 C     C_R   0.929407 0.072292 0.510784 0.000000
C1175 C     C_R   0.942990 0.033059 0.529842 0.000000
C1176 C     C_R   0.928790 0.996479 0.549118 0.000000
N214  N     N_R   0.936792 0.968250 0.582927 0.000000
C1177 C     C_2   0.937322 0.127958 0.517296 0.000000
O213  O     O_2   0.959408 0.139783 0.526629 0.000000
O214  O     O_2   0.919670 0.166787 0.516262 0.000000
H1167 H     H_    0.878410 0.980672 0.648496 0.000000
H1168 H     H_    0.886083 0.942912 0.695042 0.000000
H1169 H     H_    0.906326 0.995903 0.679416 0.000000
H1170 H     H_    0.930859 0.921710 0.649154 0.000000
H1171 H     H_    0.913642 0.846658 0.606075 0.000000
H1172 H     H_    0.894168 0.845598 0.655558 0.000000
H1173 H     H_    0.882166 0.874728 0.608950 0.000000
H1174 H     H_    0.873922 0.006569 0.494049 0.000000
H1175 H     H_    0.897109 0.083768 0.468136 0.000000
H1176 H     H_    0.961259 0.038430 0.542986 0.000000
H1177 H     H_    0.925312 0.203207 0.518589 0.000000
C1178 C     C_3   0.004545 0.010970 0.737822 0.000000
C1179 C     C_3   0.980302 0.982739 0.721890 0.000000
C1180 C     C_3   0.962595 0.020407 0.696429 0.000000
C1181 C     C_R   0.984701 0.928481 0.698179 0.000000
N215  N     N_R   0.985464 0.921240 0.651600 0.000000
C1182 C     C_R   0.991422 0.868987 0.647362 0.000000
C1183 C     C_R   0.992825 0.838986 0.608775 0.000000
C1184 C     C_R   0.999609 0.785761 0.610904 0.000000
C1185 C     C_R   0.004185 0.763070 0.651929 0.000000
C1186 C     C_R   0.000728 0.793311 0.690816 0.000000
C1187 C     C_R   0.993982 0.846046 0.687743 0.000000
N216  N     N_R   0.987677 0.880643 0.721309 0.000000
C1188 C     C_2   0.012471 0.707158 0.654300 0.000000
O215  O     O_2   0.015193 0.680031 0.620240 0.000000
O216  O     O_2   0.017470 0.685736 0.694094 0.000000
H1178 H     H_    0.021337 0.988388 0.725713 0.000000
H1179 H     H_    0.005719 0.052851 0.727602 0.000000
H1180 H     H_    0.004543 0.012686 0.774673 0.000000
H1181 H     H_    0.971409 0.975175 0.753898 0.000000
H1182 H     H_    0.945560 0.030662 0.717324 0.000000
H1183 H     H_    0.971575 0.058758 0.688849 0.000000
H1184 H     H_    0.955987 0.001364 0.664816 0.000000
H1185 H     H_    0.989100 0.856970 0.577711 0.000000
H1186 H     H_    0.001521 0.762413 0.580235 0.000000
H1187 H     H_    0.003718 0.776152 0.722494 0.000000
H1188 H     H_    0.023069 0.649025 0.695625 0.000000
C1189 C     C_3   0.039209 0.065572 0.548705 0.000000
C1190 C     C_3   0.012258 0.088473 0.540372 0.000000
C1191 C     C_3   0.002940 0.067134 0.496774 0.000000
C1192 C     C_R   0.993833 0.088334 0.579706 0.000000
N217  N     N_R   0.993960 0.041199 0.601958 0.000000
C1193 C     C_R   0.010434 0.053562 0.634969 0.000000
C1194 C     C_R   0.029358 0.019495 0.648299 0.000000
C1195 C     C_R   0.051112 0.040256 0.668231 0.000000
C1196 C     C_R   0.053801 0.094726 0.674739 0.000000
C1197 C     C_R   0.035164 0.129429 0.658353 0.000000
C1198 C     C_R   0.013229 0.107931 0.638831 0.000000
N218  N     N_R   0.998209 0.131433 0.607918 0.000000
C1199 C     C_2   0.077175 0.114224 0.697276 0.000000
O217  O     O_2   0.094807 0.083493 0.705254 0.000000
O218  O     O_2   0.079137 0.165347 0.710874 0.000000
H1189 H     H_    0.038119 0.022417 0.554781 0.000000
H1190 H     H_    0.051805 0.071505 0.519484 0.000000
H1191 H     H_    0.048974 0.086585 0.576774 0.000000
H1192 H     H_    0.014657 0.129672 0.533876 0.000000
H1193 H     H_    0.991751 0.099355 0.482170 0.000000
H1194 H     H_    0.019490 0.057897 0.474790 0.000000
H1195 H     H_    0.991914 0.031012 0.499722 0.000000
H1196 H     H_    0.027868 0.977431 0.642150 0.000000
H1197 H     H_    0.066121 0.013202 0.678092 0.000000
H1198 H     H_    0.038466 0.171778 0.658642 0.000000
H1199 H     H_    0.094748 0.175942 0.726291 0.000000
C1200 C     C_3   0.977397 0.836870 0.485285 0.000000
C1201 C     C_3   0.968918 0.892803 0.472127 0.000000
C1202 C     C_3   0.942804 0.900840 0.491794 0.000000
C1203 C     C_R   0.988689 0.934303 0.485913 0.000000
N219  N     N_R   0.995531 0.936622 0.531078 0.000000
C1204 C     C_R   0.020806 0.923369 0.528978 0.000000
C1205 C     C_R   0.036322 0.907135 0.563234 0.000000
C1206 C     C_R   0.059068 0.880719 0.552828 0.000000
C1207 C     C_R   0.065121 0.868099 0.508676 0.000000
C1208 C     C_R   0.049096 0.885232 0.474760 0.000000
C1209 C     C_R   0.028764 0.918636 0.485721 0.000000
N220  N     N_R   0.010097 0.934963 0.457684 0.000000
C1210 C     C_2   0.088546 0.837165 0.498039 0.000000
O219  O     O_2   0.102093 0.820330 0.527886 0.000000
O220  O     O_2   0.095611 0.828420 0.455329 0.000000
H1200 H     H_    0.998600 0.831540 0.484160 0.000000
H1201 H     H_    0.970414 0.827720 0.518818 0.000000
H1202 H     H_    0.968225 0.806472 0.463324 0.000000
H1203 H     H_    0.966625 0.894607 0.435628 0.000000
H1204 H     H_    0.929638 0.870248 0.477192 0.000000
H1205 H     H_    0.943519 0.895592 0.528114 0.000000
H1206 H     H_    0.936246 0.940352 0.482152 0.000000
H1207 H     H_    0.030362 0.910725 0.597261 0.000000
H1208 H     H_    0.071197 0.867230 0.579679 0.000000
H1209 H     H_    0.052387 0.873075 0.440417 0.000000
H1210 H     H_    0.111370 0.809040 0.448666 0.000000
C1211 C     C_3   0.405105 0.885018 0.659301 0.000000
C1212 C     C_3   0.424316 0.850532 0.633567 0.000000
C1213 C     C_3   0.421367 0.794214 0.638807 0.000000
C1214 C     C_R   0.421634 0.848990 0.586341 0.000000
N221  N     N_R   0.398002 0.837744 0.564785 0.000000
C1215 C     C_R   0.406969 0.824329 0.524153 0.000000
C1216 C     C_R   0.392716 0.813310 0.487774 0.000000
C1217 C     C_R   0.402261 0.828026 0.447531 0.000000
C1218 C     C_R   0.426994 0.846569 0.444523 0.000000
C1219 C     C_R   0.443157 0.843693 0.481131 0.000000
C1220 C     C_R   0.433108 0.830425 0.521043 0.000000
N222  N     N_R   0.443956 0.840676 0.561229 0.000000
C1221 C     C_2   0.435179 0.865794 0.401335 0.000000
O221  O     O_2   0.457737 0.874893 0.393496 0.000000
O222  O     O_2   0.417310 0.873626 0.369639 0.000000
H1211 H     H_    0.386370 0.884566 0.642428 0.000000
H1212 H     H_    0.402426 0.871559 0.693658 0.000000
H1213 H     H_    0.412675 0.926176 0.662036 0.000000
H1214 H     H_    0.444116 0.860087 0.644080 0.000000
H1215 H     H_    0.439731 0.783536 0.654713 0.000000
H1216 H     H_    0.402586 0.787527 0.654300 0.000000
H1217 H     H_    0.421740 0.771769 0.606578 0.000000
H1218 H     H_    0.375552 0.791171 0.491067 0.000000
H1219 H     H_    0.391502 0.821506 0.417449 0.000000
H1220 H     H_    0.461074 0.862523 0.481610 0.000000
H1221 H     H_    0.422497 0.886137 0.341049 0.000000
C1222 C     C_3   0.341979 0.833069 0.422307 0.000000
C1223 C     C_3   0.335606 0.851565 0.467284 0.000000
C1224 C     C_3   0.311917 0.886920 0.466641 0.000000
C1225 C     C_R   0.329893 0.802617 0.490302 0.000000
N223  N     N_R   0.313321 0.764893 0.471770 0.000000
C1226 C     C_R   0.300497 0.749976 0.508970 0.000000
C1227 C     C_R   0.277765 0.721769 0.511382 0.000000
C1228 C     C_R   0.264440 0.722390 0.551242 0.000000
C1229 C     C_R   0.273278 0.752694 0.587672 0.000000
C1230 C     C_R   0.296637 0.779455 0.585104 0.000000
C1231 C     C_R   0.310516 0.774778 0.546293 0.000000
N224  N     N_R   0.331261 0.803717 0.535886 0.000000
C1232 C     C_2   0.257614 0.757272 0.628351 0.000000
O223  O     O_2   0.265038 0.784619 0.660106 0.000000
O224  O     O_2   0.234749 0.731990 0.630539 0.000000
H1222 H     H_    0.323432 0.823780 0.406511 0.000000
H1223 H     H_    0.353737 0.862260 0.404756 0.000000
H1224 H     H_    0.352511 0.794979 0.425088 0.000000
H1225 H     H_    0.351623 0.873287 0.483592 0.000000
H1226 H     H_    0.298512 0.875324 0.493193 0.000000
H1227 H     H_    0.318186 0.928427 0.471783 0.000000
H1228 H     H_    0.301447 0.884719 0.434645 0.000000
H1229 H     H_    0.269549 0.702422 0.482452 0.000000
H1230 H     H_    0.246265 0.701407 0.552741 0.000000
H1231 H     H_    0.303559 0.804594 0.612316 0.000000
H1232 H     H_    0.224256 0.735812 0.657016 0.000000
C1233 C     C_3   0.421431 0.693376 0.678570 0.000000
C1234 C     C_3   0.429191 0.725079 0.719759 0.000000
C1235 C     C_3   0.418804 0.780456 0.734020 0.000000
C1236 C     C_R   0.425974 0.694394 0.757646 0.000000
N225  N     N_R   0.403565 0.701231 0.783005 0.000000
C1237 C     C_R   0.414705 0.708112 0.823825 0.000000
C1238 C     C_R   0.403468 0.725478 0.861615 0.000000
C1239 C     C_R   0.416364 0.761717 0.887706 0.000000
C1240 C     C_R   0.440489 0.777423 0.875531 0.000000
C1241 C     C_R   0.453917 0.745772 0.846285 0.000000
C1242 C     C_R   0.440862 0.708425 0.821720 0.000000
N226  N     N_R   0.448549 0.693661 0.781289 0.000000
C1243 C     C_2   0.448935 0.832069 0.884324 0.000000
O225  O     O_2   0.433964 0.864384 0.901028 0.000000
O226  O     O_2   0.472080 0.848455 0.869577 0.000000
H1233 H     H_    0.401311 0.701481 0.671019 0.000000
H1234 H     H_    0.434326 0.699060 0.650034 0.000000
H1235 H     H_    0.424784 0.651467 0.684680 0.000000
H1236 H     H_    0.449913 0.728659 0.717119 0.000000
H1237 H     H_    0.421873 0.788931 0.769969 0.000000
H1238 H     H_    0.430488 0.812635 0.720412 0.000000
H1239 H     H_    0.398111 0.784733 0.727308 0.000000
H1240 H     H_    0.385030 0.712605 0.869408 0.000000
H1241 H     H_    0.405469 0.784647 0.910938 0.000000
H1242 H     H_    0.470652 0.761545 0.832483 0.000000
H1243 H     H_    0.477249 0.885265 0.873528 0.000000
C1244 C     C_3   0.480976 0.574922 0.655908 0.000000
C1245 C     C_3   0.466691 0.562015 0.697304 0.000000
C1246 C     C_3   0.457424 0.505565 0.686855 0.000000
C1247 C     C_R   0.483836 0.569475 0.737201 0.000000
N227  N     N_R   0.498727 0.526089 0.749259 0.000000
C1248 C     C_R   0.522608 0.548832 0.751863 0.000000
C1249 C     C_R   0.546125 0.525179 0.758838 0.000000
C1250 C     C_R   0.568237 0.555196 0.753674 0.000000
C1251 C     C_R   0.566778 0.609467 0.745582 0.000000
C1252 C     C_R   0.542840 0.634081 0.742737 0.000000
C1253 C     C_R   0.521249 0.602566 0.745814 0.000000
N228  N     N_R   0.496638 0.618351 0.741857 0.000000
C1254 C     C_2   0.590512 0.640363 0.739989 0.000000
O227  O     O_2   0.611567 0.619851 0.746325 0.000000
O228  O     O_2   0.589204 0.691328 0.727282 0.000000
H1244 H     H_    0.498181 0.598019 0.663134 0.000000
H1245 H     H_    0.488281 0.538010 0.639543 0.000000
H1246 H     H_    0.467508 0.595735 0.633431 0.000000
H1247 H     H_    0.451353 0.591373 0.701043 0.000000
H1248 H     H_    0.450661 0.502527 0.651758 0.000000
H1249 H     H_    0.472860 0.476201 0.691257 0.000000
H1250 H     H_    0.440605 0.495070 0.705816 0.000000
H1251 H     H_    0.547722 0.483900 0.765362 0.000000
H1252 H     H_    0.586784 0.535432 0.755745 0.000000
H1253 H     H_    0.540919 0.676402 0.737542 0.000000
H1254 H     H_    0.604903 0.711541 0.723853 0.000000
C1255 C     C_3   0.545215 0.615084 0.884621 0.000000
C1256 C     C_3   0.523292 0.630271 0.855091 0.000000
C1257 C     C_3   0.504705 0.585441 0.847704 0.000000
C1258 C     C_R   0.510991 0.683413 0.863185 0.000000
N229  N     N_R   0.508488 0.713331 0.824995 0.000000
C1259 C     C_R   0.517962 0.760859 0.839338 0.000000
C1260 C     C_R   0.525408 0.802308 0.813673 0.000000
C1261 C     C_R   0.535854 0.847022 0.834775 0.000000
C1262 C     C_R   0.539659 0.848703 0.880776 0.000000
C1263 C     C_R   0.533221 0.804979 0.905839 0.000000
C1264 C     C_R   0.521922 0.761826 0.884510 0.000000
N230  N     N_R   0.516935 0.713710 0.901830 0.000000
C1265 C     C_2   0.551320 0.896041 0.902503 0.000000
O229  O     O_2   0.557538 0.934015 0.880465 0.000000
O230  O     O_2   0.555043 0.897997 0.946926 0.000000
H1255 H     H_    0.543962 0.571496 0.888847 0.000000
H1256 H     H_    0.563582 0.624244 0.867585 0.000000
H1257 H     H_    0.544971 0.636561 0.916833 0.000000
H1258 H     H_    0.533203 0.635229 0.823695 0.000000
H1259 H     H_    0.514776 0.551286 0.832013 0.000000
H1260 H     H_    0.497971 0.567761 0.877661 0.000000
H1261 H     H_    0.488533 0.600857 0.827852 0.000000
H1262 H     H_    0.524791 0.798862 0.777897 0.000000
H1263 H     H_    0.541747 0.879937 0.814704 0.000000
H1264 H     H_    0.537743 0.803507 0.940768 0.000000
H1265 H     H_    0.562579 0.929322 0.961177 0.000000
C1266 C     C_3   0.480043 0.712070 0.596801 0.000000
C1267 C     C_3   0.493642 0.709072 0.641476 0.000000
C1268 C     C_3   0.521682 0.691246 0.639186 0.000000
C1269 C     C_R   0.493056 0.760596 0.665384 0.000000
N231  N     N_R   0.492611 0.810254 0.644693 0.000000
C1270 C     C_R   0.491319 0.843203 0.680818 0.000000
C1271 C     C_R   0.491659 0.897820 0.681385 0.000000
C1272 C     C_R   0.483506 0.924880 0.719291 0.000000
C1273 C     C_R   0.474440 0.896723 0.755002 0.000000
C1274 C     C_R   0.477801 0.841708 0.756099 0.000000
C1275 C     C_R   0.488089 0.815514 0.719257 0.000000
N232  N     N_R   0.490955 0.762060 0.711779 0.000000
C1276 C     C_2   0.459068 0.925195 0.788972 0.000000
O231  O     O_2   0.463055 0.972316 0.797455 0.000000
O232  O     O_2   0.438462 0.901254 0.806796 0.000000
H1266 H     H_    0.469014 0.749565 0.593608 0.000000
H1267 H     H_    0.493381 0.707316 0.568397 0.000000
H1268 H     H_    0.465809 0.679559 0.595639 0.000000
H1269 H     H_    0.482648 0.681738 0.662352 0.000000
H1270 H     H_    0.525640 0.657334 0.660398 0.000000
H1271 H     H_    0.527914 0.680399 0.604969 0.000000
H1272 H     H_    0.533442 0.723835 0.653956 0.000000
H1273 H     H_    0.497399 0.919599 0.652984 0.000000
H1274 H     H_    0.481730 0.967845 0.718886 0.000000
H1275 H     H_    0.470599 0.819955 0.783398 0.000000
H1276 H     H_    0.427155 0.921264 0.826702 0.000000
C1277 C     C_3   0.403637 0.559250 0.709690 0.000000
C1278 C     C_3   0.382901 0.598822 0.708876 0.000000
C1279 C     C_3   0.373276 0.597680 0.661345 0.000000
C1280 C     C_R   0.362688 0.590302 0.741723 0.000000
N233  N     N_R   0.350154 0.541622 0.742390 0.000000
C1281 C     C_R   0.325324 0.557199 0.739368 0.000000
C1282 C     C_R   0.304386 0.524725 0.731968 0.000000
C1283 C     C_R   0.280368 0.548541 0.728405 0.000000
C1284 C     C_R   0.277866 0.603814 0.732463 0.000000
C1285 C     C_R   0.299470 0.635558 0.740181 0.000000
C1286 C     C_R   0.323180 0.611511 0.744376 0.000000
N234  N     N_R   0.346898 0.634187 0.748951 0.000000
C1287 C     C_2   0.252336 0.628909 0.728003 0.000000
O233  O     O_2   0.233421 0.601753 0.718962 0.000000
O234  O     O_2   0.249585 0.681962 0.734705 0.000000
H1277 H     H_    0.395165 0.519164 0.710785 0.000000
H1278 H     H_    0.414321 0.561842 0.678046 0.000000
H1279 H     H_    0.416482 0.570137 0.737611 0.000000
H1280 H     H_    0.389552 0.638368 0.718294 0.000000
H1281 H     H_    0.384253 0.625903 0.641457 0.000000
H1282 H     H_    0.378062 0.560025 0.645223 0.000000
H1283 H     H_    0.352208 0.603266 0.659353 0.000000
H1284 H     H_    0.306651 0.481948 0.728441 0.000000
H1285 H     H_    0.263661 0.523579 0.722317 0.000000
H1286 H     H_    0.297893 0.677656 0.738408 0.000000
H1287 H     H_    0.232690 0.698265 0.732675 0.000000
C1288 C     C_3   0.441576 0.322833 0.754063 0.000000
C1289 C     C_3   0.417507 0.355951 0.761430 0.000000
C1290 C     C_3   0.406341 0.339523 0.805854 0.000000
C1291 C     C_R   0.421420 0.415779 0.760354 0.000000
N235  N     N_R   0.444776 0.443038 0.769483 0.000000
C1292 C     C_R   0.435321 0.487988 0.789096 0.000000
C1293 C     C_R   0.448456 0.528852 0.808993 0.000000
C1294 C     C_R   0.434271 0.572214 0.824903 0.000000
C1295 C     C_R   0.407447 0.569618 0.826139 0.000000
C1296 C     C_R   0.395085 0.526514 0.809069 0.000000
C1297 C     C_R   0.409352 0.488727 0.788553 0.000000
N236  N     N_R   0.399665 0.447689 0.766277 0.000000
C1298 C     C_2   0.390940 0.608190 0.847923 0.000000
O235  O     O_2   0.372495 0.626038 0.828165 0.000000
O236  O     O_2   0.392799 0.617546 0.891493 0.000000
H1288 H     H_    0.457849 0.345604 0.767752 0.000000
H1289 H     H_    0.440007 0.284391 0.771214 0.000000
H1290 H     H_    0.444836 0.312459 0.718784 0.000000
H1291 H     H_    0.402577 0.345780 0.736516 0.000000
H1292 H     H_    0.395295 0.372609 0.822010 0.000000
H1293 H     H_    0.393980 0.304065 0.799818 0.000000
H1294 H     H_    0.421497 0.326410 0.829153 0.000000
H1295 H     H_    0.468837 0.525315 0.813457 0.000000
H1296 H     H_    0.444213 0.606642 0.838135 0.000000
H1297 H     H_    0.374660 0.522799 0.812210 0.000000
H1298 H     H_    0.379431 0.639594 0.904378 0.000000
C1299 C     C_3   0.341694 0.492686 0.634865 0.000000
C1300 C     C_3   0.361187 0.449952 0.623265 0.000000
C1301 C     C_3   0.388256 0.468270 0.613500 0.000000
C1302 C     C_R   0.360046 0.406415 0.655444 0.000000
N237  N     N_R   0.350653 0.412109 0.699007 0.000000
C1303 C     C_R   0.339331 0.364648 0.704230 0.000000
C1304 C     C_R   0.319402 0.353136 0.732242 0.000000
C1305 C     C_R   0.311479 0.300492 0.733414 0.000000
C1306 C     C_R   0.323996 0.261569 0.707280 0.000000
C1307 C     C_R   0.340826 0.276797 0.674064 0.000000
C1308 C     C_R   0.345517 0.330152 0.670296 0.000000
N238  N     N_R   0.357154 0.356037 0.637134 0.000000
C1309 C     C_2   0.318859 0.204819 0.713896 0.000000
O237  O     O_2   0.302794 0.191424 0.741004 0.000000
O238  O     O_2   0.332182 0.167221 0.690579 0.000000
H1299 H     H_    0.346871 0.510043 0.667103 0.000000
H1300 H     H_    0.340744 0.522697 0.608446 0.000000
H1301 H     H_    0.322509 0.475088 0.639526 0.000000
H1302 H     H_    0.355083 0.432688 0.591336 0.000000
H1303 H     H_    0.397953 0.436017 0.594151 0.000000
H1304 H     H_    0.387755 0.502805 0.591502 0.000000
H1305 H     H_    0.399079 0.477116 0.644479 0.000000
H1306 H     H_    0.310917 0.383523 0.753952 0.000000
H1307 H     H_    0.296908 0.289697 0.757243 0.000000
H1308 H     H_    0.350540 0.247900 0.652809 0.000000
H1309 H     H_    0.328817 0.129875 0.695039 0.000000
C1310 C     C_3   0.294002 0.518551 0.837708 0.000000
C1311 C     C_3   0.322797 0.524178 0.845743 0.000000
C1312 C     C_3   0.328637 0.572277 0.873960 0.000000
C1313 C     C_R   0.335047 0.472804 0.857617 0.000000
N239  N     N_R   0.343401 0.440413 0.821778 0.000000
C1314 C     C_R   0.339065 0.391402 0.837788 0.000000
C1315 C     C_R   0.344191 0.342785 0.817997 0.000000
C1316 C     C_R   0.334142 0.297681 0.836889 0.000000
C1317 C     C_R   0.319657 0.301819 0.875836 0.000000
C1318 C     C_R   0.317525 0.350828 0.898390 0.000000
C1319 C     C_R   0.328424 0.394532 0.879443 0.000000
N240  N     N_R   0.328178 0.445097 0.895742 0.000000
C1320 C     C_2   0.307545 0.254044 0.893647 0.000000
O239  O     O_2   0.309257 0.211296 0.873422 0.000000
O240  O     O_2   0.294676 0.256994 0.932547 0.000000
H1310 H     H_    0.290223 0.483303 0.815509 0.000000
H1311 H     H_    0.283717 0.513652 0.869166 0.000000
H1312 H     H_    0.286530 0.555226 0.822381 0.000000
H1313 H     H_    0.331714 0.532666 0.814790 0.000000
H1314 H     H_    0.328168 0.607664 0.852726 0.000000
H1315 H     H_    0.313022 0.578123 0.897704 0.000000
H1316 H     H_    0.347906 0.567389 0.888786 0.000000
H1317 H     H_    0.355131 0.339718 0.787698 0.000000
H1318 H     H_    0.337214 0.259412 0.820204 0.000000
H1319 H     H_    0.306840 0.355566 0.929004 0.000000
H1320 H     H_    0.286860 0.225419 0.944281 0.000000
C1321 C     C_3   0.312007 0.698763 0.075789 0.000000
C1322 C     C_3   0.289167 0.736474 0.079635 0.000000
C1323 C     C_3   0.296918 0.792149 0.095268 0.000000
C1324 C     C_R   0.274769 0.739157 0.038399 0.000000
N241  N     N_R   0.286703 0.736550 0.997292 0.000000
C1325 C     C_R   0.266270 0.729046 0.970197 0.000000
C1326 C     C_R   0.267153 0.701527 0.930362 0.000000
C1327 C     C_R   0.244769 0.694285 0.906543 0.000000
C1328 C     C_R   0.221389 0.709457 0.925027 0.000000
C1329 C     C_R   0.220274 0.727182 0.969538 0.000000
C1330 C     C_R   0.243393 0.732995 0.992881 0.000000
N242  N     N_R   0.247898 0.734596 0.037812 0.000000
C1331 C     C_2   0.198156 0.697587 0.898755 0.000000
O241  O     O_2   0.199283 0.696092 0.858145 0.000000
O242  O     O_2   0.176113 0.683907 0.918753 0.000000
H1321 H     H_    0.326922 0.714178 0.053502 0.000000
H1322 H     H_    0.320434 0.692390 0.109002 0.000000
H1323 H     H_    0.305342 0.659942 0.062580 0.000000
H1324 H     H_    0.274542 0.719014 0.099911 0.000000
H1325 H     H_    0.291654 0.801498 0.129741 0.000000
H1326 H     H_    0.318055 0.796249 0.094041 0.000000
H1327 H     H_    0.286543 0.821329 0.074790 0.000000
H1328 H     H_    0.285024 0.684197 0.918516 0.000000
H1329 H     H_    0.245635 0.674349 0.874152 0.000000
H1330 H     H_    0.201824 0.731556 0.985778 0.000000
H1331 H     H_    0.161696 0.673008 0.900159 0.000000
C1332 C     C_3   0.579616 0.306927 0.061314 0.000000
C1333 C     C_3   0.559916 0.344894 0.042914 0.000000
C1334 C     C_3   0.537240 0.346945 0.073406 0.000000
C1335 C     C_R   0.569787 0.399683 0.031658 0.000000
N243  N     N_R   0.596256 0.410313 0.035200 0.000000
C1336 C     C_R   0.602053 0.421058 0.992311 0.000000
C1337 C     C_R   0.625793 0.423029 0.971576 0.000000
C1338 C     C_R   0.626976 0.442518 0.929067 0.000000
C1339 C     C_R   0.604963 0.462331 0.909007 0.000000
C1340 C     C_R   0.581161 0.456222 0.929124 0.000000
C1341 C     C_R   0.580274 0.430692 0.968911 0.000000
N244  N     N_R   0.559239 0.418380 0.992587 0.000000
C1342 C     C_2   0.607264 0.493069 0.868530 0.000000
O243  O     O_2   0.627722 0.494341 0.848515 0.000000
O244  O     O_2   0.587536 0.524055 0.855722 0.000000
H1332 H     H_    0.590004 0.326025 0.089175 0.000000
H1333 H     H_    0.569740 0.270805 0.073196 0.000000
H1334 H     H_    0.592822 0.293666 0.034796 0.000000
H1335 H     H_    0.553080 0.326394 0.011154 0.000000
H1336 H     H_    0.530354 0.388284 0.074415 0.000000
H1337 H     H_    0.522130 0.319216 0.060916 0.000000
H1338 H     H_    0.543089 0.333560 0.106601 0.000000
H1339 H     H_    0.643582 0.415584 0.988685 0.000000
H1340 H     H_    0.645692 0.448120 0.914126 0.000000
H1341 H     H_    0.563741 0.471991 0.914634 0.000000
H1342 H     H_    0.590398 0.549892 0.833133 0.000000
C1343 C     C_3   0.577694 0.570181 0.972856 0.000000
C1344 C     C_3   0.555923 0.554555 0.002355 0.000000
C1345 C     C_3   0.558542 0.570768 0.050581 0.000000
C1346 C     C_R   0.529986 0.561542 0.982761 0.000000
N245  N     N_R   0.516306 0.608516 0.973034 0.000000
C1347 C     C_R   0.493767 0.587336 0.958649 0.000000
C1348 C     C_R   0.473689 0.611740 0.938143 0.000000
C1349 C     C_R   0.453541 0.579018 0.922891 0.000000
C1350 C     C_R   0.453051 0.524876 0.931155 0.000000
C1351 C     C_R   0.474030 0.502121 0.949579 0.000000
C1352 C     C_R   0.494222 0.533364 0.959796 0.000000
N246  N     N_R   0.516803 0.515260 0.972821 0.000000
C1353 C     C_2   0.430362 0.491009 0.925368 0.000000
O245  O     O_2   0.412992 0.502307 0.899930 0.000000
O246  O     O_2   0.427392 0.450321 0.953175 0.000000
H1343 H     H_    0.582256 0.611719 0.977477 0.000000
H1344 H     H_    0.594386 0.545508 0.980437 0.000000
H1345 H     H_    0.573266 0.561292 0.937938 0.000000
H1346 H     H_    0.557481 0.511684 0.004186 0.000000
H1347 H     H_    0.564970 0.535443 0.069093 0.000000
H1348 H     H_    0.573611 0.601238 0.054746 0.000000
H1349 H     H_    0.539359 0.582818 0.063393 0.000000
H1350 H     H_    0.474473 0.653737 0.931827 0.000000
H1351 H     H_    0.437034 0.596831 0.908259 0.000000
H1352 H     H_    0.474627 0.461055 0.956912 0.000000
H1353 H     H_    0.411048 0.432492 0.955002 0.000000
C1354 C     C_3   0.566985 0.678272 0.124819 0.000000
C1355 C     C_3   0.552810 0.698229 0.084591 0.000000
C1356 C     C_3   0.538122 0.748622 0.097128 0.000000
C1357 C     C_R   0.568828 0.703249 0.043065 0.000000
N247  N     N_R   0.595633 0.698621 0.042893 0.000000
C1358 C     C_R   0.601091 0.701180 0.998987 0.000000
C1359 C     C_R   0.624662 0.694288 0.978203 0.000000
C1360 C     C_R   0.625963 0.697554 0.932453 0.000000
C1361 C     C_R   0.603924 0.707976 0.907915 0.000000
C1362 C     C_R   0.580384 0.712916 0.929189 0.000000
C1363 C     C_R   0.579188 0.709066 0.974617 0.000000
N248  N     N_R   0.557929 0.707547 0.000604 0.000000
C1364 C     C_2   0.605378 0.714874 0.859603 0.000000
O247  O     O_2   0.625771 0.707910 0.839963 0.000000
O248  O     O_2   0.584322 0.730850 0.837024 0.000000
H1354 H     H_    0.570054 0.711240 0.149279 0.000000
H1355 H     H_    0.554246 0.649250 0.140810 0.000000
H1356 H     H_    0.585156 0.657690 0.115767 0.000000
H1357 H     H_    0.538783 0.667403 0.077457 0.000000
H1358 H     H_    0.530562 0.765559 0.066508 0.000000
H1359 H     H_    0.522023 0.738892 0.119745 0.000000
H1360 H     H_    0.550301 0.778439 0.114476 0.000000
H1361 H     H_    0.642097 0.688306 0.996424 0.000000
H1362 H     H_    0.644424 0.692839 0.916248 0.000000
H1363 H     H_    0.563535 0.718973 0.910080 0.000000
H1364 H     H_    0.585411 0.737704 0.805618 0.000000
C1365 C     C_3   0.271547 0.568690 0.951355 0.000000
C1366 C     C_3   0.286025 0.596144 0.989236 0.000000
C1367 C     C_3   0.282213 0.570499 0.033541 0.000000
C1368 C     C_R   0.313743 0.594681 0.979210 0.000000
N249  N     N_R   0.327359 0.546458 0.974296 0.000000
C1369 C     C_R   0.351481 0.564642 0.973314 0.000000
C1370 C     C_R   0.373407 0.535101 0.970194 0.000000
C1371 C     C_R   0.395815 0.561203 0.980966 0.000000
C1372 C     C_R   0.396440 0.615233 0.986735 0.000000
C1373 C     C_R   0.374056 0.644532 0.986154 0.000000
C1374 C     C_R   0.352179 0.618585 0.978122 0.000000
N250  N     N_R   0.328850 0.640803 0.978052 0.000000
C1375 C     C_2   0.421112 0.640407 0.983007 0.000000
O249  O     O_2   0.438706 0.629306 0.008112 0.000000
O250  O     O_2   0.424626 0.676381 0.951183 0.000000
H1365 H     H_    0.282672 0.533088 0.941561 0.000000
H1366 H     H_    0.251741 0.557621 0.960188 0.000000
H1367 H     H_    0.270609 0.594444 0.922180 0.000000
H1368 H     H_    0.279801 0.637207 0.993562 0.000000
H1369 H     H_    0.269562 0.595684 0.055111 0.000000
H1370 H     H_    0.273939 0.530939 0.028816 0.000000
H1371 H     H_    0.301066 0.567487 0.050406 0.000000
H1372 H     H_    0.373117 0.492817 0.963405 0.000000
H1373 H     H_    0.413137 0.539930 0.987363 0.000000
H1374 H     H_    0.372234 0.685699 0.992328 0.000000
H1375 H     H_    0.440143 0.697471 0.950114 0.000000
C1376 C     C_3   0.279444 0.329214 0.030053 0.000000
C1377 C     C_3   0.284086 0.379190 0.058707 0.000000
C1378 C     C_3   0.312027 0.379370 0.071989 0.000000
C1379 C     C_R   0.275998 0.429060 0.035154 0.000000
N251  N     N_R   0.286804 0.438080 0.993423 0.000000
C1380 C     C_R   0.265570 0.442819 0.968039 0.000000
C1381 C     C_R   0.264385 0.439509 0.922459 0.000000
C1382 C     C_R   0.240730 0.443545 0.901889 0.000000
C1383 C     C_R   0.218479 0.449156 0.927133 0.000000
C1384 C     C_R   0.219946 0.449788 0.973406 0.000000
C1385 C     C_R   0.243870 0.446693 0.993536 0.000000
N252  N     N_R   0.249759 0.442183 0.037474 0.000000
C1386 C     C_2   0.193488 0.453498 0.904343 0.000000
O251  O     O_2   0.192445 0.452092 0.863722 0.000000
O252  O     O_2   0.171660 0.460748 0.927847 0.000000
H1376 H     H_    0.285211 0.335124 0.995127 0.000000
H1377 H     H_    0.290755 0.295586 0.043521 0.000000
H1378 H     H_    0.258896 0.317956 0.031524 0.000000
H1379 H     H_    0.272144 0.374400 0.088404 0.000000
H1380 H     H_    0.318118 0.420766 0.078564 0.000000
H1381 H     H_    0.314676 0.355238 0.102019 0.000000
H1382 H     H_    0.323369 0.360394 0.044931 0.000000
H1383 H     H_    0.281278 0.433218 0.902712 0.000000
H1384 H     H_    0.239908 0.441680 0.865885 0.000000
H1385 H     H_    0.202639 0.450113 0.992719 0.000000
H1386 H     H_    0.155705 0.466755 0.912016 0.000000
C1387 C     C_3   0.039565 0.244324 0.265592 0.000000
C1388 C     C_3   0.055507 0.200358 0.283234 0.000000
C1389 C     C_3   0.072523 0.179758 0.245982 0.000000
C1390 C     C_R   0.070731 0.223008 0.321275 0.000000
N253  N     N_R   0.097568 0.229740 0.321185 0.000000
C1391 C     C_R   0.101647 0.247499 0.363636 0.000000
C1392 C     C_R   0.124801 0.253540 0.385655 0.000000
C1393 C     C_R   0.124510 0.276072 0.428319 0.000000
C1394 C     C_R   0.101391 0.292888 0.448171 0.000000
C1395 C     C_R   0.078112 0.283426 0.426034 0.000000
C1396 C     C_R   0.078774 0.257356 0.385189 0.000000
N254  N     N_R   0.058536 0.239354 0.360626 0.000000
C1397 C     C_2   0.102100 0.317269 0.493541 0.000000
O253  O     O_2   0.121642 0.312928 0.516001 0.000000
O254  O     O_2   0.081816 0.344756 0.510902 0.000000
H1387 H     H_    0.052765 0.277073 0.258620 0.000000
H1388 H     H_    0.029970 0.230229 0.234531 0.000000
H1389 H     H_    0.025376 0.258256 0.290635 0.000000
H1390 H     H_    0.042594 0.168434 0.294516 0.000000
H1391 H     H_    0.081172 0.141377 0.254694 0.000000
H1392 H     H_    0.061640 0.174506 0.214361 0.000000
H1393 H     H_    0.087300 0.209375 0.240196 0.000000
H1394 H     H_    0.142778 0.241228 0.370216 0.000000
H1395 H     H_    0.142728 0.281734 0.445517 0.000000
H1396 H     H_    0.059731 0.294310 0.440427 0.000000
H1397 H     H_    0.066523 0.353183 0.493998 0.000000
C1398 C     C_3   0.195371 0.311886 0.178935 0.000000
C1399 C     C_3   0.198677 0.370652 0.181589 0.000000
C1400 C     C_3   0.187026 0.396865 0.222207 0.000000
C1401 C     C_R   0.226060 0.383865 0.180531 0.000000
N255  N     N_R   0.244490 0.365876 0.210672 0.000000
C1402 C     C_R   0.266081 0.387176 0.193356 0.000000
C1403 C     C_R   0.291442 0.376864 0.202951 0.000000
C1404 C     C_R   0.309546 0.408980 0.182733 0.000000
C1405 C     C_R   0.301827 0.453366 0.158990 0.000000
C1406 C     C_R   0.276751 0.457945 0.145130 0.000000
C1407 C     C_R   0.259985 0.421444 0.160414 0.000000
N256  N     N_R   0.235334 0.417463 0.148800 0.000000
C1408 C     C_2   0.319989 0.494854 0.147689 0.000000
O255  O     O_2   0.342339 0.491211 0.159282 0.000000
O256  O     O_2   0.311558 0.540030 0.129263 0.000000
H1398 H     H_    0.210632 0.294188 0.199313 0.000000
H1399 H     H_    0.175842 0.302245 0.190814 0.000000
H1400 H     H_    0.197731 0.297565 0.143858 0.000000
H1401 H     H_    0.189427 0.385812 0.152231 0.000000
H1402 H     H_    0.181185 0.437254 0.213945 0.000000
H1403 H     H_    0.169542 0.375796 0.233237 0.000000
H1404 H     H_    0.202296 0.401406 0.247591 0.000000
H1405 H     H_    0.297002 0.344840 0.224348 0.000000
H1406 H     H_    0.329750 0.399985 0.185807 0.000000
H1407 H     H_    0.270316 0.488773 0.123192 0.000000
H1408 H     H_    0.323390 0.569131 0.124873 0.000000
C1409 C     C_3   0.151521 0.525690 0.119670 0.000000
C1410 C     C_3   0.159330 0.469444 0.131427 0.000000
C1411 C     C_3   0.139686 0.448684 0.162029 0.000000
C1412 C     C_R   0.162931 0.429865 0.093547 0.000000
N257  N     N_R   0.144486 0.393129 0.077681 0.000000
C1413 C     C_R   0.158432 0.363824 0.047470 0.000000
C1414 C     C_R   0.150336 0.322711 0.019236 0.000000
C1415 C     C_R   0.168193 0.297393 0.991848 0.000000
C1416 C     C_R   0.194010 0.311862 0.993744 0.000000
C1417 C     C_R   0.202000 0.351258 0.023962 0.000000
C1418 C     C_R   0.183679 0.378869 0.048333 0.000000
N258  N     N_R   0.187288 0.421193 0.076389 0.000000
C1419 C     C_2   0.212456 0.287413 0.962188 0.000000
O257  O     O_2   0.206555 0.247430 0.940445 0.000000
O258  O     O_2   0.235276 0.311121 0.954809 0.000000
H1409 H     H_    0.130301 0.530979 0.120778 0.000000
H1410 H     H_    0.159897 0.553891 0.144865 0.000000
H1411 H     H_    0.158802 0.536007 0.086957 0.000000
H1412 H     H_    0.178034 0.473122 0.148432 0.000000
H1413 H     H_    0.144943 0.407936 0.171620 0.000000
H1414 H     H_    0.137549 0.475775 0.191696 0.000000
H1415 H     H_    0.121969 0.446874 0.142193 0.000000
H1416 H     H_    0.130734 0.309102 0.018124 0.000000
H1417 H     H_    0.161670 0.266248 0.968872 0.000000
H1418 H     H_    0.221956 0.361123 0.027507 0.000000
H1419 H     H_    0.246843 0.296484 0.932390 0.000000
C1420 C     C_3   0.190279 0.549205 0.018552 0.000000
C1421 C     C_3   0.215682 0.573601 0.031917 0.000000
C1422 C     C_3   0.218029 0.623862 0.008603 0.000000
C1423 C     C_R   0.218168 0.583187 0.080580 0.000000
N259  N     N_R   0.218501 0.633503 0.102940 0.000000
C1424 C     C_R   0.217405 0.617808 0.145474 0.000000
C1425 C     C_R   0.213840 0.650270 0.181743 0.000000
C1426 C     C_R   0.207708 0.628644 0.221621 0.000000
C1427 C     C_R   0.206263 0.574073 0.225563 0.000000
C1428 C     C_R   0.212547 0.540331 0.189306 0.000000
C1429 C     C_R   0.217345 0.563372 0.148747 0.000000
N260  N     N_R   0.218911 0.539495 0.107849 0.000000
C1430 C     C_2   0.195390 0.554517 0.267075 0.000000
O259  O     O_2   0.195026 0.583407 0.300481 0.000000
O260  O     O_2   0.183459 0.507194 0.267680 0.000000
H1420 H     H_    0.174464 0.577488 0.024663 0.000000
H1421 H     H_    0.190431 0.540053 0.982261 0.000000
H1422 H     H_    0.187153 0.512544 0.037022 0.000000
H1423 H     H_    0.230992 0.545877 0.021567 0.000000
H1424 H     H_    0.237579 0.638170 0.015738 0.000000
H1425 H     H_    0.215369 0.616246 0.972335 0.000000
H1426 H     H_    0.203202 0.652008 0.021624 0.000000
H1427 H     H_    0.213233 0.691661 0.178228 0.000000
H1428 H     H_    0.201820 0.655075 0.248634 0.000000
H1429 H     H_    0.211948 0.497748 0.192187 0.000000
H1430 H     H_    0.174964 0.496222 0.294478 0.000000
C1431 C     C_3   0.510592 0.892980 0.469817 0.000000
C1432 C     C_3   0.505359 0.838428 0.449885 0.000000
C1433 C     C_3   0.521074 0.838350 0.408698 0.000000
C1434 C     C_R   0.511639 0.795492 0.481829 0.000000
N261  N     N_R   0.527967 0.754769 0.468263 0.000000
C1435 C     C_R   0.539977 0.743062 0.506702 0.000000
C1436 C     C_R   0.561251 0.711129 0.512270 0.000000
C1437 C     C_R   0.574643 0.715177 0.552070 0.000000
C1438 C     C_R   0.566315 0.750251 0.585783 0.000000
C1439 C     C_R   0.543209 0.777994 0.580939 0.000000
C1440 C     C_R   0.530080 0.772824 0.541342 0.000000
N262  N     N_R   0.509820 0.802437 0.528091 0.000000
C1441 C     C_2   0.581602 0.756891 0.626888 0.000000
O261  O     O_2   0.602302 0.733983 0.630536 0.000000
O262  O     O_2   0.572911 0.788560 0.660684 0.000000
H1431 H     H_    0.530004 0.893822 0.485616 0.000000
H1432 H     H_    0.509549 0.923673 0.443997 0.000000
H1433 H     H_    0.495943 0.901970 0.493977 0.000000
H1434 H     H_    0.486148 0.830552 0.437267 0.000000
H1435 H     H_    0.521764 0.799053 0.393602 0.000000
H1436 H     H_    0.510834 0.863718 0.385121 0.000000
H1437 H     H_    0.540144 0.855803 0.415898 0.000000
H1438 H     H_    0.568519 0.686489 0.485629 0.000000
H1439 H     H_    0.592153 0.692071 0.555843 0.000000
H1440 H     H_    0.535899 0.803563 0.607250 0.000000
H1441 H     H_    0.583073 0.793261 0.687563 0.000000
C1442 C     C_3   0.483152 0.739401 0.244992 0.000000
C1443 C     C_3   0.495246 0.743695 0.290920 0.000000
C1444 C     C_3   0.505971 0.797932 0.300168 0.000000
C1445 C     C_R   0.479619 0.734575 0.331181 0.000000
N263  N     N_R   0.452526 0.739665 0.332709 0.000000
C1446 C     C_R   0.448927 0.739983 0.377365 0.000000
C1447 C     C_R   0.425622 0.736392 0.397610 0.000000
C1448 C     C_R   0.424173 0.718160 0.440040 0.000000
C1449 C     C_R   0.446257 0.706597 0.463184 0.000000
C1450 C     C_R   0.470316 0.713550 0.443957 0.000000
C1451 C     C_R   0.471418 0.730537 0.400480 0.000000
N264  N     N_R   0.492131 0.728603 0.372928 0.000000
C1452 C     C_2   0.443260 0.682070 0.506137 0.000000
O263  O     O_2   0.424735 0.693358 0.529673 0.000000
O264  O     O_2   0.458627 0.641300 0.516635 0.000000
H1442 H     H_    0.462171 0.735985 0.247123 0.000000
H1443 H     H_    0.488672 0.772127 0.223276 0.000000
H1444 H     H_    0.491218 0.703203 0.228188 0.000000
H1445 H     H_    0.509586 0.712361 0.289072 0.000000
H1446 H     H_    0.491345 0.820491 0.319896 0.000000
H1447 H     H_    0.523124 0.795317 0.320999 0.000000
H1448 H     H_    0.511118 0.818759 0.269846 0.000000
H1449 H     H_    0.408528 0.747215 0.380912 0.000000
H1450 H     H_    0.405403 0.711786 0.454619 0.000000
H1451 H     H_    0.487325 0.701094 0.461520 0.000000
H1452 H     H_    0.454758 0.621186 0.542702 0.000000

loop_
_geom_bond_atom_site_label_1
_geom_bond_atom_site_label_2
_geom_bond_distance
_geom_bond_site_symmetry_2
_ccdc_geom_bond_type
Zn1   N2    2.177 .      S
Zn1   N7    2.076 .      S
Zn1   N32   2.143 .      S
Zn1   N99   2.236 1_565  S
Zn2   N3    2.159 .      S
Zn2   N6    2.142 .      S
Zn2   N8    2.096 .      S
Zn2   N176  2.126 .      S
Zn3   N10   2.108 .      S
Zn3   N12   2.126 .      S
Zn3   N13   2.195 1_565  S
Zn3   N79   2.179 .      S
Zn4   N15   2.271 .      S
Zn4   N17   2.186 .      S
Zn4   N54   2.138 .      S
Zn4   N133  2.203 .      S
Zn5   N20   2.197 .      S
Zn5   N21   2.173 .      S
Zn5   N24   2.118 .      S
Zn5   N223  2.184 .      S
Zn6   N26   2.173 .      S
Zn6   N222  2.288 .      S
Zn6   N231  2.227 .      S
Zn6   N262  2.141 .      S
Zn7   N33   2.240 .      S
Zn7   N180  2.097 .      S
Zn7   N184  2.183 1_565  S
Zn7   N213  2.159 .      S
Zn8   N25   2.219 .      S
Zn8   N27   2.290 .      S
Zn8   N49   2.226 .      S
Zn8   N204  2.248 .      S
Zn9   N5    2.156 .      S
Zn9   N28   2.249 .      S
Zn9   N92   2.202 .      S
Zn9   N163  2.127 .      S
Zn10  N19   2.180 .      S
Zn10  N109  2.250 .      S
Zn10  N131  2.086 .      S
Zn10  N263  2.286 .      S
Zn11  N29   2.277 .      S
Zn11  N78   2.392 .      S
Zn11  N141  2.222 .      S
Zn11  N182  2.271 .      S
Zn12  N30   2.164 .      S
Zn12  N127  2.220 .      S
Zn12  N150  2.199 .      S
Zn12  N153  2.171 .      S
Zn13  N31   2.179 .      S
Zn13  N72   2.241 .      S
Zn13  N158  2.130 .      S
Zn13  N177  1.993 .      S
Zn14  N34   2.243 .      S
Zn14  N36   2.151 .      S
Zn14  N37   2.154 .      S
Zn14  N192  2.150 .      S
Zn15  N40   2.079 .      S
Zn15  N58   2.037 .      S
Zn15  N186  2.057 .      S
Zn15  N194  2.152 .      S
Zn16  N35   2.232 .      S
Zn16  N42   2.034 1_655  S
Zn16  N210  2.185 .      S
Zn16  N216  2.198 .      S
Zn17  N43   2.207 .      S
Zn17  N51   2.251 .      S
Zn17  N206  2.191 .      S
Zn17  N238  2.096 .      S
Zn18  N46   2.223 1_655  S
Zn18  N47   2.154 .      S
Zn18  N188  2.158 .      S
Zn18  N218  2.123 .      S
Zn19  N50   2.163 .      S
Zn19  N52   2.124 .      S
Zn19  N53   2.117 .      S
Zn19  N89   2.119 .      S
Zn20  N23   2.179 .      S
Zn20  N44   2.195 .      S
Zn20  N56   2.240 .      S
Zn20  N136  2.297 .      S
Zn21  N48   2.145 .      S
Zn21  N57   2.189 .      S
Zn21  N60   2.118 1_655  S
Zn21  N211  2.197 .      S
Zn22  N39   2.132 .      S
Zn22  N61   2.134 .      S
Zn22  N70   2.216 .      S
Zn22  N117  2.122 .      S
Zn23  N41   2.027 .      S
Zn23  N63   2.226 .      S
Zn23  N66   2.150 1_565  S
Zn23  N138  2.190 1_455  S
Zn24  N59   2.127 .      S
Zn24  N65   2.131 .      S
Zn24  N68   2.216 .      S
Zn24  N120  2.139 1_455  S
Zn25  N38   2.105 .      S
Zn25  N69   2.176 1_565  S
Zn25  N71   2.218 .      S
Zn25  N139  2.122 .      S
Zn26  N73   2.306 .      S
Zn26  N76   2.218 .      S
Zn26  N123  2.289 .      S
Zn26  N189  2.235 .      S
Zn27  N77   2.248 1_455  S
Zn27  N80   2.149 .      S
Zn27  N81   2.243 1_565  S
Zn27  N220  2.212 .      S
Zn28  N83   2.239 .      S
Zn28  N85   2.281 .      S
Zn28  N242  2.231 .      S
Zn28  N259  2.236 .      S
Zn29  N87   2.180 .      S
Zn29  N90   2.184 .      S
Zn29  N227  2.188 .      S
Zn29  N235  2.183 .      S
Zn30  N91   2.244 .      S
Zn30  N94   2.239 .      S
Zn30  N95   2.226 .      S
Zn30  N97   2.279 .      S
Zn31  N75   2.150 .      S
Zn31  N100  2.281 .      S
Zn31  N101  2.265 .      S
Zn31  N104  2.128 .      S
Zn32  N96   2.206 .      S
Zn32  N105  2.274 .      S
Zn32  N108  2.389 .      S
Zn32  N110  2.100 .      S
Zn33  N98   2.215 .      S
Zn33  N112  2.229 .      S
Zn33  N114  2.263 .      S
Zn33  N116  2.237 .      S
Zn34  N118  2.195 .      S
Zn34  N119  2.160 .      S
Zn34  N121  2.165 .      S
Zn34  N125  2.253 .      S
Zn35  N124  2.313 .      S
Zn35  N126  2.134 .      S
Zn35  N128  2.295 .      S
Zn35  N130  2.223 .      S
Zn36  N115  2.189 .      S
Zn36  N132  2.092 .      S
Zn36  N134  2.273 .      S
Zn36  N135  2.241 .      S
Zn37  N122  2.040 1_565  S
Zn37  N137  2.260 .      S
Zn37  N140  2.211 .      S
Zn37  N142  2.210 .      S
Zn38  N144  2.156 .      S
Zn38  N145  2.170 1_554  S
Zn38  N148  2.087 .      S
Zn38  N149  2.237 1_455  S
Zn39  N151  2.189 1_554  S
Zn39  N154  2.201 .      S
Zn39  N156  2.127 .      S
Zn39  N157  2.175 .      S
Zn40  N14   2.221 .      S
Zn40  N159  2.171 .      S
Zn40  N162  2.235 .      S
Zn40  N253  2.178 .      S
Zn41  N18   2.197 .      S
Zn41  N103  2.056 .      S
Zn41  N164  2.083 .      S
Zn41  N172  2.223 .      S
Zn42  N165  2.191 .      S
Zn42  N168  2.250 .      S
Zn42  N225  2.256 .      S
Zn42  N234  2.179 .      S
Zn43  N170  2.166 .      S
Zn43  N171  2.192 .      S
Zn43  N173  2.234 .      S
Zn43  N243  2.184 .      S
Zn44  N174  2.265 .      S
Zn44  N175  2.157 .      S
Zn44  N178  2.124 .      S
Zn44  N247  2.120 .      S
Zn45  N1    2.158 .      S
Zn45  N74   2.159 1_565  S
Zn45  N179  2.140 .      S
Zn45  N181  2.309 .      S
Zn46  N183  2.138 .      S
Zn46  N185  2.151 .      S
Zn46  N187  2.222 .      S
Zn46  N190  2.198 .      S
Zn47  N152  2.156 .      S
Zn47  N191  2.194 .      S
Zn47  N193  2.201 .      S
Zn47  N195  2.102 .      S
Zn48  N93   2.258 .      S
Zn48  N198  2.247 .      S
Zn48  N199  2.315 .      S
Zn48  N202  2.176 .      S
Zn49  N200  2.212 .      S
Zn49  N203  2.182 .      S
Zn49  N205  2.135 .      S
Zn49  N207  2.241 .      S
Zn50  N146  2.213 1_655  S
Zn50  N196  2.086 .      S
Zn50  N209  2.221 .      S
Zn50  N212  2.242 .      S
Zn51  N214  2.137 .      S
Zn51  N215  2.159 .      S
Zn51  N217  2.092 1_565  S
Zn51  N219  2.158 .      S
Zn52  N167  2.171 .      S
Zn52  N208  2.193 .      S
Zn52  N221  2.263 .      S
Zn52  N224  2.082 .      S
Zn53  N226  2.069 .      S
Zn53  N228  2.134 .      S
Zn53  N229  2.195 .      S
Zn53  N232  2.258 .      S
Zn54  N233  2.162 .      S
Zn54  N236  2.089 .      S
Zn54  N237  2.134 .      S
Zn54  N239  2.205 .      S
Zn55  N106  2.279 1_556  S
Zn55  N166  2.220 .      S
Zn55  N241  2.133 .      S
Zn55  N250  2.199 .      S
Zn56  N88   2.152 .      S
Zn56  N111  2.126 1_556  S
Zn56  N244  2.087 .      S
Zn56  N246  2.075 .      S
Zn57  N107  2.306 1_556  S
Zn57  N230  2.187 .      S
Zn57  N245  2.213 .      S
Zn57  N248  2.130 1_556  S
Zn58  N113  2.214 1_556  S
Zn58  N240  2.186 .      S
Zn58  N249  2.161 .      S
Zn58  N251  2.147 .      S
Zn59  N67   2.254 .      S
Zn59  N147  2.206 .      S
Zn59  N161  2.255 .      S
Zn59  N257  2.137 .      S
Zn60  N11   2.097 .      S
Zn60  N22   2.188 .      S
Zn60  N86   2.108 .      S
Zn60  N201  2.230 .      S
Zn61  N62   2.150 .      S
Zn61  N102  2.240 .      S
Zn61  N155  2.177 .      S
Zn61  N169  2.212 .      S
Zn62  N45   2.233 .      S
Zn62  N82   2.106 .      S
Zn62  N129  2.260 1_455  S
Zn62  N254  2.156 .      S
Zn63  N55   2.255 .      S
Zn63  N160  2.149 .      S
Zn63  N197  2.231 .      S
Zn63  N255  2.163 .      S
Zn64  N252  2.178 .      S
Zn64  N256  2.076 .      S
Zn64  N258  2.073 .      S
Zn64  N260  2.150 .      S
Zn65  N9    2.273 .      S
Zn65  N64   2.153 .      S
Zn65  N84   2.329 .      S
Zn65  N143  2.180 .      S
Zn66  N4    2.176 .      S
Zn66  N16   2.183 .      S
Zn66  N261  2.095 .      S
Zn66  N264  2.295 .      S
C1    C2    1.492 1_545  S
C1    H1    1.105 .      S
C1    H2    1.066 .      S
C1    H3    1.097 .      S
C2    C1    1.492 1_565  S
C2    C3    1.507 .      S
C2    C4    1.442 .      S
C2    H4    1.075 .      S
C3    H5    1.106 .      S
C3    H6    1.088 .      S
C3    H7    1.078 .      S
C6    H8    1.077 .      S
C7    H9    1.080 .      S
C8    C11   1.466 .      S
C9    H10   1.075 .      S
C11   O2    1.344 .      S
O2    H11   0.965 .      S
C12   C13   1.514 .      S
C12   H12   1.089 .      S
C12   H13   1.077 .      S
C12   H14   1.109 .      S
C13   C14   1.510 .      S
C13   C15   1.475 .      S
C13   H15   1.089 .      S
C14   H16   1.096 .      S
C14   H17   1.105 .      S
C14   H18   1.101 .      S
C17   H19   1.070 .      S
C18   H20   1.080 .      S
C19   C22   1.465 .      S
C20   H21   1.061 .      S
C22   O4    1.346 .      S
O4    H22   0.965 .      S
C23   C24   1.494 .      S
C23   H23   1.092 1_565  S
C23   H24   1.107 .      S
C23   H25   1.108 .      S
C24   C25   1.486 .      S
C24   C26   1.469 .      S
C24   H26   1.092 .      S
C25   H27   1.099 .      S
C25   H28   1.081 .      S
C25   H29   1.104 .      S
C28   H30   1.071 .      S
C29   H31   1.078 .      S
C30   C33   1.463 1_545  S
C31   H32   1.078 .      S
C33   C30   1.463 1_565  S
C33   O6    1.343 .      S
O6    H33   0.966 .      S
H23   C23   1.092 1_545  S
C34   C35   1.511 .      S
C34   H34   1.099 .      S
C34   H35   1.107 1_565  S
C34   H36   1.107 .      S
C35   C36   1.505 1_565  S
C35   C37   1.478 .      S
C35   H37   1.084 .      S
C36   C35   1.505 1_545  S
C36   H38   1.107 1_545  S
C36   H39   1.107 .      S
C36   H40   1.097 .      S
C39   H41   1.078 .      S
C40   H42   1.080 .      S
C41   C44   1.464 .      S
C42   H43   1.076 .      S
C44   O8    1.345 .      S
O8    H44   0.965 .      S
H35   C34   1.107 1_545  S
H38   C36   1.107 1_565  S
C45   C46   1.493 .      S
C45   H45   1.109 .      S
C45   H46   1.086 .      S
C45   H47   1.051 .      S
C46   C47   1.525 .      S
C46   C48   1.394 .      S
C46   H48   1.102 .      S
C47   H49   1.098 .      S
C47   H50   1.095 .      S
C47   H51   1.084 .      S
C50   H52   1.076 .      S
C51   H53   1.053 .      S
C52   C55   1.459 .      S
C53   H54   1.077 1_565  S
C55   O10   1.342 .      S
O10   H55   0.964 .      S
H54   C53   1.077 1_545  S
C56   C57   1.498 1_545  S
C56   H56   1.101 .      S
C56   H57   1.107 .      S
C56   H58   1.078 .      S
C57   C56   1.498 1_565  S
C57   C58   1.510 .      S
C57   C59   1.521 .      S
C57   H59   1.096 .      S
C58   H60   1.088 .      S
C58   H61   1.108 .      S
C58   H62   1.103 .      S
C61   H63   1.065 .      S
C62   H64   1.080 .      S
C63   C66   1.467 .      S
C64   H65   1.069 .      S
C66   O12   1.344 .      S
O12   H66   0.966 .      S
C67   C68   1.469 .      S
C67   H67   1.094 .      S
C67   H68   1.108 .      S
C67   H69   1.096 .      S
C68   C69   1.518 .      S
C68   C70   1.514 .      S
C68   H70   1.102 .      S
C69   H71   1.100 .      S
C69   H72   1.109 .      S
C69   H73   1.101 .      S
N13   Zn3   2.195 1_545  S
C72   H74   1.052 1_545  S
C73   H75   1.077 .      S
C74   C77   1.469 .      S
C75   H76   1.033 .      S
C77   O14   1.346 .      S
O14   H77   0.966 .      S
H74   C72   1.052 1_565  S
C78   C79   1.483 .      S
C78   H78   1.100 .      S
C78   H79   1.076 .      S
C78   H80   1.086 .      S
C79   C80   1.495 .      S
C79   C81   1.410 .      S
C79   H81   1.090 .      S
C80   H82   1.105 .      S
C80   H83   1.093 .      S
C80   H84   1.087 .      S
C83   H85   1.064 .      S
C84   H86   1.081 .      S
C85   C88   1.467 .      S
C86   H87   1.078 .      S
C88   O16   1.346 .      S
O16   H88   0.966 .      S
C89   C90   1.508 .      S
C89   H89   1.105 .      S
C89   H90   1.094 .      S
C89   H91   1.108 .      S
C90   C91   1.512 .      S
C90   C92   1.397 .      S
C90   H92   1.094 .      S
C91   H93   1.097 .      S
C91   H94   1.097 .      S
C91   H95   1.098 .      S
C94   H96   1.081 .      S
C95   H97   1.080 .      S
C96   C99   1.467 .      S
C97   H98   1.075 .      S
C99   O18   1.346 .      S
O18   H99   0.966 .      S
C100  C101  1.504 .      S
C100  H100  1.073 .      S
C100  H101  1.097 .      S
C100  H102  1.104 .      S
C101  C102  1.473 .      S
C101  C103  1.475 .      S
C101  H103  1.072 .      S
C102  H104  1.100 .      S
C102  H105  1.090 .      S
C102  H106  1.062 .      S
C105  H107  1.063 .      S
C106  H108  1.075 .      S
C107  C110  1.436 .      S
C108  H109  1.048 .      S
C110  O20   1.343 .      S
O20   H110  0.954 .      S
C111  C112  1.510 .      S
C111  H111  1.096 .      S
C111  H112  1.108 .      S
C111  H113  1.105 .      S
C112  C113  1.510 .      S
C112  C114  1.496 .      S
C112  H114  1.075 .      S
C113  H115  1.103 .      S
C113  H116  1.108 .      S
C113  H117  1.103 .      S
C116  H118  1.048 .      S
C117  H119  1.080 .      S
C118  C121  1.462 .      S
C119  H120  1.061 .      S
C121  O22   1.340 .      S
O22   H121  0.964 .      S
C122  C123  1.514 .      S
C122  H122  1.100 .      S
C122  H123  1.108 .      S
C122  H124  1.105 .      S
C123  C124  1.518 .      S
C123  C125  1.511 .      S
C123  H125  1.079 .      S
C124  H126  1.092 .      S
C124  H127  1.104 .      S
C124  H128  1.099 .      S
C127  H129  1.066 .      S
C128  H130  1.075 .      S
C129  C132  1.469 .      S
C130  H131  1.073 .      S
C132  O24   1.346 .      S
O24   H132  0.966 .      S
C133  C134  1.491 .      S
C133  H133  1.086 .      S
C133  H134  1.083 .      S
C133  H135  1.087 .      S
C134  C135  1.435 .      S
C134  C136  1.394 .      S
C134  H136  1.059 .      S
C135  H137  1.095 .      S
C135  H138  1.065 .      S
C135  H139  1.079 1_565  S
C138  H140  1.061 .      S
C139  H141  1.080 1_565  S
C140  C143  1.467 .      S
C141  H142  1.070 .      S
C143  O26   1.344 .      S
O26   H143  0.966 .      S
H139  C135  1.079 1_545  S
H141  C139  1.080 1_545  S
C144  C145  1.483 .      S
C144  H144  1.085 .      S
C144  H145  1.087 .      S
C144  H146  1.109 .      S
C145  C146  1.521 .      S
C145  C147  1.497 .      S
C145  H147  1.095 .      S
C146  H148  1.108 .      S
C146  H149  1.093 .      S
C146  H150  1.108 .      S
C149  H151  1.043 1_545  S
C150  H152  1.066 .      S
C151  C154  1.452 1_545  S
C152  H153  1.056 .      S
C154  C151  1.452 1_565  S
C154  O28   1.337 .      S
O28   H154  0.959 .      S
H151  C149  1.043 1_565  S
C155  C156  1.514 .      S
C155  H155  1.105 .      S
C155  H156  1.108 .      S
C155  H157  1.107 .      S
C156  C157  1.476 .      S
C156  C158  1.482 .      S
C156  H158  1.088 .      S
C157  H159  1.105 .      S
C157  H160  1.103 .      S
C157  H161  1.096 .      S
C160  H162  1.055 .      S
C161  H163  1.079 1_655  S
C162  C165  1.471 .      S
C163  H164  1.076 .      S
C165  O30   1.342 1_655  S
O30   C165  1.342 1_455  S
O30   H165  0.966 .      S
H163  C161  1.079 1_455  S
C166  C167  1.488 .      S
C166  H166  1.104 .      S
C166  H167  1.098 .      S
C166  H168  1.102 .      S
C167  C168  1.492 .      S
C167  C169  1.502 .      S
C167  H169  1.104 .      S
C168  H170  1.090 .      S
C168  H171  1.105 .      S
C168  H172  1.097 .      S
C171  H173  1.072 .      S
C172  H174  1.070 .      S
C173  C176  1.423 .      S
C174  H175  1.072 .      S
C176  O32   1.344 1_565  S
O32   C176  1.344 1_545  S
O32   H176  0.956 .      S
C177  C178  1.496 1_545  S
C177  H177  1.074 .      S
C177  H178  1.107 .      S
C177  H179  1.099 .      S
C178  C177  1.496 1_565  S
C178  C179  1.514 .      S
C178  C180  1.473 .      S
C178  H180  1.080 .      S
C179  H181  1.109 .      S
C179  H182  1.107 .      S
C179  H183  1.103 .      S
C182  H184  1.065 .      S
C183  H185  1.081 .      S
C184  C187  1.469 .      S
C185  H186  1.051 .      S
C187  O34   1.345 .      S
O34   H187  0.966 .      S
C188  C189  1.507 .      S
C188  H188  1.089 .      S
C188  H189  1.063 .      S
C188  H190  1.099 .      S
C189  C190  1.508 .      S
C189  C191  1.388 .      S
C189  H191  1.095 .      S
C190  H192  1.101 .      S
C190  H193  1.088 .      S
C190  H194  1.088 .      S
C193  H195  1.066 .      S
C194  H196  1.074 .      S
C195  C198  1.440 .      S
C196  H197  1.068 .      S
C198  O36   1.339 .      S
O36   H198  0.961 .      S
C199  C200  1.509 .      S
C199  H199  1.097 .      S
C199  H200  1.108 .      S
C199  H201  1.100 .      S
C200  C201  1.484 .      S
C200  C202  1.464 .      S
C200  H202  1.092 .      S
C201  H203  1.098 .      S
C201  H204  1.103 .      S
C201  H205  1.085 .      S
C204  H206  1.075 .      S
C205  H207  1.079 .      S
C206  C209  1.459 .      S
C207  H208  1.074 .      S
C209  O38   1.346 .      S
O38   H209  0.966 .      S
C210  C211  1.517 .      S
C210  H210  1.106 .      S
C210  H211  1.104 .      S
C210  H212  1.104 .      S
C211  C212  1.495 .      S
C211  C213  1.459 .      S
C211  H213  1.078 .      S
C212  H214  1.099 .      S
C212  H215  1.103 .      S
C212  H216  1.106 .      S
C215  H217  1.063 .      S
C216  H218  1.075 .      S
C217  C220  1.453 .      S
C218  H219  1.060 .      S
C220  O40   1.343 .      S
O40   H220  0.964 .      S
C221  C222  1.502 .      S
C221  H221  1.092 .      S
C221  H222  1.102 .      S
C221  H223  1.104 .      S
C222  C223  1.501 1_455  S
C222  C224  1.489 .      S
C222  H224  1.095 1_455  S
C223  C222  1.501 1_655  S
C223  H225  1.098 .      S
C223  H226  1.095 1_655  S
C223  H227  1.102 1_655  S
C226  H228  1.070 1_565  S
C227  H229  1.081 1_565  S
C228  C231  1.467 .      S
C229  H230  1.073 .      S
N42   Zn16  2.034 1_455  S
C231  O42   1.347 .      S
O42   H231  0.966 .      S
H224  C222  1.095 1_655  S
H226  C223  1.095 1_455  S
H227  C223  1.102 1_455  S
H228  C226  1.070 1_545  S
H229  C227  1.081 1_545  S
C232  C233  1.505 .      S
C232  H232  1.091 .      S
C232  H233  1.109 .      S
C232  H234  1.094 .      S
C233  C234  1.517 .      S
C233  C235  1.410 .      S
C233  H235  1.063 .      S
C234  H236  1.102 .      S
C234  H237  1.082 .      S
C234  H238  1.108 .      S
C237  H239  1.068 .      S
C238  H240  1.081 .      S
C239  C242  1.469 .      S
C240  H241  1.076 .      S
C242  O44   1.346 .      S
O44   H242  0.966 .      S
C243  C244  1.517 .      S
C243  H243  1.109 .      S
C243  H244  1.092 .      S
C243  H245  1.110 1_655  S
C244  C245  1.492 .      S
C244  C246  1.508 .      S
C244  H246  1.094 .      S
C245  H247  1.084 .      S
C245  H248  1.108 .      S
C245  H249  1.098 .      S
C248  H250  1.068 .      S
C249  H251  1.080 .      S
C250  C253  1.465 .      S
C251  H252  1.073 .      S
N46   Zn18  2.223 1_455  S
C253  O46   1.344 .      S
O46   H253  0.966 .      S
H245  C243  1.110 1_455  S
C254  C255  1.504 .      S
C254  H254  1.093 .      S
C254  H255  1.109 .      S
C254  H256  1.092 .      S
C255  C256  1.509 1_655  S
C255  C257  1.531 .      S
C255  H257  1.106 .      S
C256  C255  1.509 1_455  S
C256  H258  1.100 .      S
C256  H259  1.098 .      S
C256  H260  1.105 .      S
C259  H261  1.061 .      S
C260  H262  1.080 .      S
C261  C264  1.468 .      S
C262  H263  1.071 .      S
C264  O48   1.346 .      S
O48   H264  0.966 .      S
C265  C266  1.482 .      S
C265  H265  1.079 .      S
C265  H266  1.085 .      S
C265  H267  1.097 .      S
C266  C267  1.508 .      S
C266  C268  1.382 .      S
C266  H268  1.047 .      S
C267  H269  1.091 .      S
C267  H270  1.065 .      S
C267  H271  1.098 .      S
C270  H272  1.070 .      S
C271  H273  1.078 .      S
C272  C275  1.475 .      S
C273  H274  1.078 .      S
C275  O50   1.350 .      S
O50   H275  0.964 .      S
C276  C277  1.505 .      S
C276  H276  1.104 .      S
C276  H277  1.098 .      S
C276  H278  1.101 .      S
C277  C278  1.518 .      S
C277  C279  1.468 .      S
C277  H279  1.096 .      S
C278  H280  1.107 .      S
C278  H281  1.095 .      S
C278  H282  1.099 .      S
C281  H283  1.044 .      S
C282  H284  1.080 .      S
C283  C286  1.439 .      S
C284  H285  1.059 .      S
C286  O52   1.346 .      S
O52   H286  0.964 .      S
C287  C288  1.515 .      S
C287  H287  1.105 .      S
C287  H288  1.109 .      S
C287  H289  1.108 .      S
C288  C289  1.499 .      S
C288  C290  1.491 .      S
C288  H290  1.095 .      S
C289  H291  1.108 .      S
C289  H292  1.105 .      S
C289  H293  1.097 .      S
C292  H294  1.077 .      S
C293  H295  1.076 .      S
C294  C297  1.443 .      S
C295  H296  1.064 .      S
C297  O54   1.339 .      S
O54   H297  0.958 .      S
C298  C299  1.486 .      S
C298  H298  1.093 .      S
C298  H299  1.099 .      S
C298  H300  1.105 .      S
C299  C300  1.512 .      S
C299  C301  1.500 .      S
C299  H301  1.109 .      S
C300  H302  1.098 .      S
C300  H303  1.108 .      S
C300  H304  1.100 .      S
C303  H305  1.062 .      S
C304  H306  1.081 .      S
C305  C308  1.465 .      S
C306  H307  1.045 .      S
C308  O56   1.342 .      S
O56   H308  0.966 .      S
C309  C310  1.482 .      S
C309  H309  1.106 .      S
C309  H310  1.083 .      S
C309  H311  1.102 .      S
C310  C311  1.468 .      S
C310  C312  1.454 .      S
C310  H312  1.101 .      S
C311  H313  1.100 .      S
C311  H314  1.103 .      S
C311  H315  1.091 .      S
C314  H316  1.072 .      S
C315  H317  1.064 .      S
C316  C319  1.450 .      S
C317  H318  1.067 .      S
C319  O58   1.336 .      S
O58   H319  0.956 .      S
C320  C321  1.493 .      S
C320  H320  1.087 .      S
C320  H321  1.097 .      S
C320  H322  1.105 .      S
C321  C322  1.511 .      S
C321  C323  1.434 .      S
C321  H323  1.076 .      S
C322  H324  1.102 .      S
C322  H325  1.105 .      S
C322  H326  1.098 1_655  S
C325  H327  1.067 .      S
C326  H328  1.081 .      S
C327  C330  1.469 .      S
C328  H329  1.064 .      S
N60   Zn21  2.118 1_455  S
C330  O60   1.346 .      S
O60   H330  0.966 .      S
H326  C322  1.098 1_455  S
C331  C332  1.496 .      S
C331  H331  1.106 .      S
C331  H332  1.088 .      S
C331  H333  1.103 .      S
C332  C333  1.524 .      S
C332  C334  1.510 .      S
C332  H334  1.097 .      S
C333  H335  1.103 1_554  S
C333  H336  1.106 .      S
C333  H337  1.097 .      S
C336  H338  1.079 .      S
C337  H339  1.080 .      S
C338  C341  1.466 .      S
C339  H340  1.075 .      S
C341  O62   1.344 .      S
O62   H341  0.964 .      S
H335  C333  1.103 1_556  S
C342  C343  1.511 .      S
C342  H342  1.102 1_554  S
C342  H343  1.105 1_565  S
C342  H344  1.103 .      S
C343  C344  1.510 1_565  S
C343  C345  1.535 .      S
C343  H345  1.095 .      S
C344  C343  1.510 1_545  S
C344  H346  1.079 .      S
C344  H347  1.110 .      S
C344  H348  1.092 .      S
C347  H349  1.053 .      S
C348  H350  1.080 .      S
C349  C352  1.465 .      S
C350  H351  1.070 .      S
C352  O64   1.344 .      S
O64   H352  0.964 .      S
H342  C342  1.102 1_556  S
H343  C342  1.105 1_545  S
C353  C354  1.490 1_655  S
C353  H353  1.093 .      S
C353  H354  1.107 .      S
C353  H355  1.088 .      S
C354  C353  1.490 1_455  S
C354  C355  1.507 .      S
C354  C356  1.492 .      S
C354  H356  1.099 .      S
C355  H357  1.107 .      S
C355  H358  1.109 .      S
C355  H359  1.099 .      S
C358  H360  1.079 .      S
C359  H361  1.081 .      S
C360  C363  1.467 .      S
C361  H362  1.069 .      S
N66   Zn23  2.150 1_545  S
C363  O66   1.346 1_545  S
O66   C363  1.346 1_565  S
O66   H363  0.966 .      S
C364  C365  1.514 .      S
C364  H364  1.108 .      S
C364  H365  1.093 .      S
C364  H366  1.101 .      S
C365  C366  1.482 .      S
C365  C367  1.446 .      S
C365  H367  1.093 .      S
C366  H368  1.100 .      S
C366  H369  1.100 .      S
C366  H370  1.088 .      S
C369  H371  1.039 1_556  S
C370  H372  1.074 .      S
C371  C374  1.458 .      S
C372  H373  1.051 .      S
C374  O68   1.338 .      S
O68   H374  0.964 .      S
H371  C369  1.039 1_554  S
C375  C376  1.431 .      S
C375  H375  1.088 1_556  S
C375  H376  1.079 1_556  S
C375  H377  1.041 1_556  S
C376  C377  1.494 .      S
C376  C378  1.454 .      S
C376  H378  1.086 .      S
C377  H379  1.092 .      S
C377  H380  1.102 .      S
C377  H381  1.083 .      S
N69   Zn25  2.176 1_545  S
C380  H382  1.054 1_545  S
C381  H383  1.081 .      S
C382  C385  1.439 .      S
C383  H384  1.069 .      S
C385  O70   1.335 1_556  S
O70   C385  1.335 1_554  S
O70   H385  0.958 .      S
H375  C375  1.088 1_554  S
H376  C375  1.079 1_554  S
H377  C375  1.041 1_554  S
H382  C380  1.054 1_565  S
C386  C387  1.485 .      S
C386  H386  1.078 .      S
C386  H387  1.097 .      S
C386  H388  1.103 .      S
C387  C388  1.518 .      S
C387  C389  1.417 .      S
C387  H389  1.074 .      S
C388  H390  1.107 .      S
C388  H391  1.098 .      S
C388  H392  1.105 .      S
C391  H393  1.080 .      S
C392  H394  1.081 .      S
C393  C396  1.468 .      S
C394  H395  1.066 .      S
C396  O72   1.345 .      S
O72   H396  0.966 .      S
C397  C398  1.506 .      S
C397  H397  1.106 .      S
C397  H398  1.108 .      S
C397  H399  1.099 .      S
C398  C399  1.440 .      S
C398  C400  1.482 .      S
C398  H400  1.101 .      S
C399  H401  1.105 .      S
C399  H402  1.080 .      S
C399  H403  1.102 .      S
C402  H404  1.067 .      S
C403  H405  1.077 .      S
C404  C407  1.473 1_545  S
C405  H406  1.066 1_545  S
N74   Zn45  2.159 1_545  S
C407  C404  1.473 1_565  S
C407  O74   1.338 .      S
O74   H407  0.965 .      S
H406  C405  1.066 1_565  S
C408  C409  1.512 .      S
C408  H408  1.102 .      S
C408  H409  1.093 .      S
C408  H410  1.101 .      S
C409  C410  1.520 .      S
C409  C411  1.456 .      S
C409  H411  1.086 .      S
C410  H412  1.107 .      S
C410  H413  1.093 .      S
C410  H414  1.090 .      S
C413  H415  1.067 .      S
C414  H416  1.078 .      S
C415  C418  1.468 .      S
C416  H417  1.071 .      S
C418  O76   1.346 .      S
O76   H418  0.966 .      S
C419  C420  1.511 1_455  S
C419  H419  1.085 .      S
C419  H420  1.107 .      S
C419  H421  1.105 .      S
C420  C419  1.511 1_655  S
C420  C421  1.523 .      S
C420  C422  1.493 .      S
C420  H422  1.077 .      S
C421  H423  1.104 .      S
C421  H424  1.106 .      S
C421  H425  1.109 .      S
N77   Zn27  2.248 1_655  S
C424  H426  1.062 1_655  S
C425  H427  1.072 .      S
C426  C429  1.440 .      S
C427  H428  1.068 .      S
C429  O78   1.330 .      S
O78   H429  0.953 .      S
H426  C424  1.062 1_455  S
C430  C431  1.488 .      S
C430  H430  1.103 .      S
C430  H431  1.101 .      S
C430  H432  1.100 .      S
C431  C432  1.515 .      S
C431  C433  1.495 .      S
C431  H433  1.102 .      S
C432  H434  1.102 .      S
C432  H435  1.109 .      S
C432  H436  1.096 .      S
C435  H437  1.072 .      S
C436  H438  1.071 .      S
C437  C440  1.468 .      S
C438  H439  1.072 .      S
C440  O80   1.345 .      S
O80   H440  0.966 .      S
C441  C442  1.497 .      S
C441  H441  1.104 .      S
C441  H442  1.069 .      S
C441  H443  1.098 .      S
C442  C443  1.505 .      S
C442  C444  1.442 .      S
C442  H444  1.092 .      S
C443  H445  1.094 .      S
C443  H446  1.101 .      S
C443  H447  1.097 .      S
N81   Zn27  2.243 1_545  S
C446  H448  1.079 .      S
C447  H449  1.026 .      S
C448  C451  1.432 .      S
C449  H450  1.062 .      S
C451  O82   1.337 .      S
O82   H451  0.962 .      S
C452  C453  1.492 .      S
C452  H452  1.102 .      S
C452  H453  1.105 .      S
C452  H454  1.105 .      S
C453  C454  1.521 .      S
C453  C455  1.503 .      S
C453  H455  1.103 .      S
C454  H456  1.100 .      S
C454  H457  1.109 .      S
C454  H458  1.103 .      S
C457  H459  1.065 .      S
C458  H460  1.080 .      S
C459  C462  1.462 1_554  S
C460  H461  1.067 .      S
C462  C459  1.462 1_556  S
C462  O84   1.341 1_556  S
O84   C462  1.341 1_554  S
O84   H462  0.964 1_564  S
H462  O84   0.964 1_546  S
C463  C464  1.476 .      S
C463  H463  1.063 .      S
C463  H464  1.096 .      S
C463  H465  1.101 .      S
C464  C465  1.502 .      S
C464  C466  1.397 .      S
C464  H466  1.068 .      S
C465  H467  1.107 .      S
C465  H468  1.104 .      S
C465  H469  1.096 .      S
C468  H470  1.081 .      S
C469  H471  1.066 .      S
C470  C473  1.424 .      S
C471  H472  1.080 .      S
C473  O86   1.317 .      S
O86   H473  0.961 .      S
C474  C475  1.462 .      S
C474  H474  1.074 .      S
C474  H475  1.104 .      S
C474  H476  1.090 .      S
C475  C476  1.520 .      S
C475  C477  1.494 .      S
C475  H477  1.093 .      S
C476  H478  1.103 .      S
C476  H479  1.109 .      S
C476  H480  1.101 .      S
C479  H481  1.071 .      S
C480  H482  1.081 .      S
C481  C484  1.466 .      S
C482  H483  1.078 .      S
C484  O88   1.343 .      S
O88   H484  0.965 .      S
C485  C486  1.483 .      S
C485  H485  1.101 .      S
C485  H486  1.108 .      S
C485  H487  1.084 .      S
C486  C487  1.520 .      S
C486  C488  1.509 .      S
C486  H488  1.089 .      S
C487  H489  1.097 .      S
C487  H490  1.109 .      S
C487  H491  1.109 .      S
C490  H492  1.054 .      S
C491  H493  1.079 .      S
C492  C495  1.466 .      S
C493  H494  1.066 .      S
C495  O90   1.345 .      S
O90   H495  0.966 .      S
C496  C497  1.489 1_565  S
C496  H496  1.085 1_565  S
C496  H497  1.108 .      S
C496  H498  1.093 .      S
C497  C496  1.489 1_545  S
C497  C498  1.511 .      S
C497  C499  1.482 .      S
C497  H499  1.101 .      S
C498  H500  1.104 .      S
C498  H501  1.108 .      S
C498  H502  1.092 .      S
C501  H503  1.071 .      S
C502  H504  1.075 .      S
C503  C506  1.426 .      S
C504  H505  1.074 .      S
C506  O92   1.336 .      S
O92   H506  0.956 .      S
H496  C496  1.085 1_545  S
C507  C508  1.510 .      S
C507  H507  1.084 .      S
C507  H508  1.095 .      S
C507  H509  1.103 .      S
C508  C509  1.503 .      S
C508  C510  1.462 .      S
C508  H510  1.097 .      S
C509  H511  1.104 .      S
C509  H512  1.093 .      S
C509  H513  1.102 .      S
C512  H514  1.044 .      S
C513  H515  1.080 .      S
C514  C517  1.465 .      S
C515  H516  1.054 .      S
C517  O94   1.345 .      S
O94   H517  0.966 .      S
C518  C519  1.484 .      S
C518  H518  1.097 1_565  S
C518  H519  1.100 .      S
C518  H520  1.103 1_565  S
C519  C520  1.515 .      S
C519  C521  1.511 .      S
C519  H521  1.092 .      S
C520  H522  1.104 .      S
C520  H523  1.097 .      S
C520  H524  1.108 .      S
C523  H525  1.072 .      S
C524  H526  1.077 .      S
C525  C528  1.463 1_554  S
C526  H527  1.073 .      S
C528  C525  1.463 1_556  S
C528  O96   1.343 .      S
O96   H528  0.966 .      S
H518  C518  1.097 1_545  S
H520  C518  1.103 1_545  S
C529  C530  1.497 .      S
C529  H529  1.100 .      S
C529  H530  1.103 .      S
C529  H531  1.096 .      S
C530  C531  1.508 .      S
C530  C532  1.485 .      S
C530  H532  1.108 .      S
C531  H533  1.107 .      S
C531  H534  1.102 .      S
C531  H535  1.109 .      S
C534  H536  1.057 .      S
C535  H537  1.080 1_554  S
C536  C539  1.469 .      S
C537  H538  1.057 .      S
C539  O98   1.346 .      S
O98   H539  0.966 .      S
H537  C535  1.080 1_556  S
C540  C541  1.504 .      S
C540  H540  1.098 .      S
C540  H541  1.108 .      S
C540  H542  1.101 .      S
C541  C542  1.501 .      S
C541  C543  1.487 .      S
C541  H543  1.094 .      S
C542  H544  1.100 .      S
C542  H545  1.091 .      S
C542  H546  1.108 .      S
N99   Zn1   2.236 1_545  S
C545  H547  1.056 1_545  S
C546  H548  1.078 .      S
C547  C550  1.468 .      S
C548  H549  1.054 .      S
C550  O100  1.345 .      S
O100  H550  0.966 .      S
H547  C545  1.056 1_565  S
C551  C552  1.504 .      S
C551  H551  1.094 .      S
C551  H552  1.106 .      S
C551  H553  1.094 .      S
C552  C553  1.482 .      S
C552  C554  1.439 .      S
C552  H554  1.097 .      S
C553  H555  1.107 .      S
C553  H556  1.089 .      S
C553  H557  1.090 .      S
C556  H558  1.050 .      S
C557  H559  1.080 .      S
C558  C561  1.452 .      S
C559  H560  1.072 .      S
C561  O102  1.344 .      S
O102  H561  0.963 .      S
C562  C563  1.487 .      S
C562  H562  1.100 .      S
C562  H563  1.092 .      S
C562  H564  1.099 .      S
C563  C564  1.504 .      S
C563  C565  1.480 .      S
C563  H565  1.082 .      S
C564  H566  1.107 .      S
C564  H567  1.099 .      S
C564  H568  1.109 .      S
C567  H569  1.078 .      S
C568  H570  1.080 .      S
C569  C572  1.468 .      S
C570  H571  1.058 .      S
C572  O104  1.346 .      S
O104  H572  0.966 .      S
C573  C574  1.519 1_556  S
C573  H573  1.090 1_556  S
C573  H574  1.104 .      S
C573  H575  1.105 .      S
C574  C573  1.519 1_554  S
C574  C575  1.477 .      S
C574  C576  1.429 .      S
C574  H576  1.090 1_554  S
C575  H577  1.104 .      S
C575  H578  1.085 .      S
C575  H579  1.076 .      S
C578  H580  1.075 .      S
C579  H581  1.076 .      S
C580  C583  1.468 .      S
C581  H582  1.078 1_554  S
N106  Zn55  2.279 1_554  S
C583  O106  1.346 .      S
O106  H583  0.966 .      S
H573  C573  1.090 1_554  S
H576  C574  1.090 1_556  S
H582  C581  1.078 1_556  S
C584  C585  1.511 .      S
C584  H584  1.103 .      S
C584  H585  1.106 .      S
C584  H586  1.105 .      S
C585  C586  1.487 1_554  S
C585  C587  1.484 .      S
C585  H587  1.098 .      S
C586  C585  1.487 1_556  S
C586  H588  1.097 .      S
C586  H589  1.107 .      S
C586  H590  1.104 .      S
N107  Zn57  2.306 1_554  S
C589  H591  1.036 .      S
C590  H592  1.075 .      S
C591  C594  1.411 .      S
C592  H593  1.049 .      S
C594  O108  1.327 .      S
O108  H594  0.951 .      S
C595  C596  1.484 .      S
C595  H595  1.084 .      S
C595  H596  1.109 .      S
C595  H597  1.099 .      S
C596  C597  1.492 .      S
C596  C598  1.501 .      S
C596  H598  1.080 .      S
C597  H599  1.103 .      S
C597  H600  1.104 .      S
C597  H601  1.097 .      S
C600  H602  1.074 .      S
C601  H603  1.074 .      S
C602  C605  1.456 .      S
C603  H604  1.079 .      S
C605  O110  1.342 .      S
O110  H605  0.956 .      S
C606  C607  1.488 .      S
C606  H606  1.092 .      S
C606  H607  1.097 .      S
C606  H608  1.092 .      S
C607  C608  1.513 .      S
C607  C609  1.474 .      S
C607  H609  1.067 .      S
C608  H610  1.099 .      S
C608  H611  1.096 .      S
C608  H612  1.102 .      S
N111  Zn56  2.126 1_554  S
C611  H613  1.078 .      S
C612  H614  1.080 .      S
C613  C616  1.464 .      S
C614  H615  1.059 .      S
C616  O112  1.342 .      S
O112  H616  0.965 .      S
C617  C618  1.513 .      S
C617  H617  1.100 .      S
C617  H618  1.106 .      S
C617  H619  1.108 1_556  S
C618  C619  1.506 .      S
C618  C620  1.472 1_556  S
C618  H620  1.069 .      S
C619  H621  1.106 .      S
C619  H622  1.100 .      S
C619  H623  1.103 .      S
C620  C618  1.472 1_554  S
N113  Zn58  2.214 1_554  S
C622  H624  1.072 .      S
C623  H625  1.081 .      S
C624  C627  1.450 .      S
C625  H626  1.061 .      S
C627  O114  1.336 .      S
O114  H627  0.961 .      S
H619  C617  1.108 1_554  S
C628  C629  1.495 .      S
C628  H628  1.084 .      S
C628  H629  1.105 .      S
C628  H630  1.101 .      S
C629  C630  1.480 .      S
C629  C631  1.446 .      S
C629  H631  1.076 .      S
C630  H632  1.099 .      S
C630  H633  1.103 .      S
C630  H634  1.096 .      S
C633  H635  1.076 .      S
C634  H636  1.080 .      S
C635  C638  1.461 .      S
C636  H637  1.077 .      S
C638  O116  1.343 .      S
O116  H638  0.963 .      S
C639  C640  1.501 .      S
C639  H639  1.087 .      S
C639  H640  1.104 .      S
C639  H641  1.108 .      S
C640  C641  1.459 .      S
C640  C642  1.476 1_556  S
C640  H642  1.093 .      S
C641  H643  1.102 .      S
C641  H644  1.100 .      S
C641  H645  1.107 .      S
C642  C640  1.476 1_554  S
C644  H646  1.067 .      S
C645  H647  1.069 .      S
C646  C649  1.426 .      S
C647  H648  1.071 .      S
C649  O118  1.330 .      S
O118  H649  0.956 .      S
C650  C651  1.496 1_455  S
C650  H650  1.108 .      S
C650  H651  1.104 .      S
C650  H652  1.082 .      S
C651  C650  1.496 1_655  S
C651  C652  1.483 .      S
C651  C653  1.499 .      S
C651  H653  1.089 .      S
C652  H654  1.101 .      S
C652  H655  1.072 .      S
C652  H656  1.085 .      S
C655  H657  1.069 .      S
C656  H658  1.063 .      S
C657  C660  1.407 .      S
C658  H659  1.070 1_655  S
N120  Zn24  2.139 1_655  S
C660  O120  1.342 1_655  S
O120  C660  1.342 1_455  S
O120  H660  0.956 .      S
H659  C658  1.070 1_455  S
C661  C662  1.404 .      S
C661  H661  1.092 .      S
C661  H662  1.092 1_554  S
C661  H663  1.101 .      S
C662  C663  1.489 1_554  S
C662  C664  1.457 .      S
C662  H664  1.097 .      S
C663  C662  1.489 1_556  S
C663  H665  1.085 1_556  S
C663  H666  1.103 .      S
C663  H667  1.090 .      S
C666  H668  1.066 .      S
C667  H669  1.074 .      S
C668  C671  1.452 1_545  S
C669  H670  1.064 1_545  S
N122  Zn37  2.040 1_545  S
C671  C668  1.452 1_565  S
C671  O122  1.340 .      S
O122  H671  0.960 .      S
H662  C661  1.092 1_556  S
H665  C663  1.085 1_554  S
H670  C669  1.064 1_565  S
C672  C673  1.522 .      S
C672  H672  1.100 .      S
C672  H673  1.108 .      S
C672  H674  1.108 .      S
C673  C674  1.527 .      S
C673  C675  1.472 .      S
C673  H675  1.103 .      S
C674  H676  1.106 .      S
C674  H677  1.104 .      S
C674  H678  1.084 .      S
C677  H679  1.061 .      S
C678  H680  1.065 .      S
C679  C682  1.444 .      S
C680  H681  1.023 .      S
C682  O124  1.325 .      S
O124  H682  0.963 .      S
C683  C684  1.487 .      S
C683  H683  1.080 .      S
C683  H684  1.103 .      S
C683  H685  1.098 .      S
C684  C685  1.504 .      S
C684  C686  1.490 .      S
C684  H686  1.108 .      S
C685  H687  1.091 .      S
C685  H688  1.107 .      S
C685  H689  1.103 .      S
C688  H690  1.052 .      S
C689  H691  1.050 1_655  S
C690  C693  1.463 1_655  S
C691  H692  1.053 .      S
C693  C690  1.463 1_455  S
C693  O126  1.346 .      S
O126  H693  0.963 .      S
H691  C689  1.050 1_455  S
C694  C695  1.482 .      S
C694  H694  1.092 .      S
C694  H695  1.105 .      S
C694  H696  1.104 .      S
C695  C696  1.502 .      S
C695  C697  1.461 .      S
C695  H697  1.082 .      S
C696  H698  1.104 .      S
C696  H699  1.107 .      S
C696  H700  1.102 .      S
C699  H701  1.069 .      S
C700  H702  1.079 .      S
C701  C704  1.467 .      S
C702  H703  1.046 .      S
C704  O128  1.343 .      S
O128  H704  0.966 .      S
C705  C706  1.504 .      S
C705  H705  1.105 .      S
C705  H706  1.098 .      S
C705  H707  1.098 .      S
C706  C707  1.493 .      S
C706  C708  1.481 .      S
C706  H708  1.090 .      S
C707  H709  1.101 .      S
C707  H710  1.088 .      S
C707  H711  1.097 .      S
N129  Zn62  2.260 1_655  S
C710  H712  1.079 .      S
C711  H713  1.080 .      S
C712  C715  1.467 .      S
C713  H714  1.078 .      S
C715  O130  1.347 .      S
O130  H715  0.966 .      S
C716  C717  1.478 .      S
C716  H716  1.084 .      S
C716  H717  1.074 .      S
C716  H718  1.091 .      S
C717  C718  1.470 .      S
C717  C719  1.437 .      S
C717  H719  1.052 .      S
C718  H720  1.083 .      S
C718  H721  1.066 .      S
C718  H722  1.045 .      S
C721  H723  1.053 .      S
C722  H724  1.063 .      S
C723  C726  1.453 .      S
C724  H725  1.050 .      S
C726  O132  1.347 .      S
O132  H726  0.964 .      S
C727  C728  1.502 .      S
C727  H727  1.096 .      S
C727  H728  1.098 .      S
C727  H729  1.106 .      S
C728  C729  1.498 .      S
C728  C730  1.438 .      S
C728  H730  1.090 .      S
C729  H731  1.100 .      S
C729  H732  1.102 .      S
C729  H733  1.101 .      S
C732  H734  1.066 .      S
C733  H735  1.080 .      S
C734  C737  1.462 .      S
C735  H736  1.052 .      S
C737  O134  1.336 .      S
O134  H737  0.963 .      S
C738  C739  1.485 .      S
C738  H738  1.103 .      S
C738  H739  1.105 .      S
C738  H740  1.100 .      S
C739  C740  1.489 .      S
C739  C741  1.501 .      S
C739  H741  1.106 .      S
C740  H742  1.105 .      S
C740  H743  1.098 .      S
C740  H744  1.091 .      S
C743  H745  1.062 .      S
C744  H746  1.073 .      S
C745  C748  1.474 .      S
C746  H747  1.064 .      S
C748  O136  1.342 .      S
O136  H748  0.965 .      S
C749  C750  1.491 1_445  S
C749  H749  1.085 1_455  S
C749  H750  1.092 .      S
C749  H751  1.090 1_545  S
C750  C749  1.491 1_665  S
C750  C751  1.464 .      S
C750  C752  1.454 .      S
C750  H752  1.085 1_655  S
C751  H753  1.097 .      S
C751  H754  1.094 1_565  S
C751  H755  1.088 .      S
C754  H756  1.053 .      S
C755  H757  1.078 .      S
C756  C759  1.459 1_565  S
C757  H758  1.063 .      S
N138  Zn23  2.190 1_655  S
C759  C756  1.459 1_545  S
C759  O138  1.345 .      S
O138  H759  0.964 .      S
H749  C749  1.085 1_655  S
H751  C749  1.090 1_565  S
H752  C750  1.085 1_455  S
H754  C751  1.094 1_545  S
C760  C761  1.505 .      S
C760  H760  1.109 .      S
C760  H761  1.089 .      S
C760  H762  1.089 1_556  S
C761  C762  1.494 .      S
C761  C763  1.447 1_556  S
C761  H763  1.105 .      S
C762  H764  1.067 .      S
C762  H765  1.087 .      S
C762  H766  1.098 .      S
C763  C761  1.447 1_554  S
C765  H767  1.067 .      S
C766  H768  1.080 .      S
C767  C770  1.435 .      S
C768  H769  1.067 .      S
C770  O140  1.336 .      S
O140  H770  0.960 .      S
H762  C760  1.089 1_554  S
C771  C772  1.500 .      S
C771  H771  1.083 .      S
C771  H772  1.094 .      S
C771  H773  1.095 .      S
C772  C773  1.466 .      S
C772  C774  1.469 .      S
C772  H774  1.107 .      S
C773  H775  1.077 .      S
C773  H776  1.096 .      S
C773  H777  1.083 .      S
C776  H778  1.060 .      S
C777  H779  1.078 .      S
C778  C781  1.448 1_655  S
C779  H780  1.078 .      S
C781  C778  1.448 1_455  S
C781  O142  1.336 .      S
O142  H781  0.962 .      S
C782  C783  1.471 1_556  S
C782  H782  1.097 .      S
C782  H783  1.105 .      S
C782  H784  1.093 1_556  S
C783  C782  1.471 1_554  S
C783  C784  1.485 1_554  S
C783  C785  1.488 .      S
C783  H785  1.092 1_554  S
C784  C783  1.485 1_556  S
C784  H786  1.101 .      S
C784  H787  1.104 .      S
C784  H788  1.105 .      S
C787  H789  1.063 .      S
C788  H790  1.080 .      S
C789  C792  1.468 .      S
C790  H791  1.075 .      S
C792  O144  1.342 .      S
O144  H792  0.965 .      S
H784  C782  1.093 1_554  S
H785  C783  1.092 1_556  S
C793  C794  1.509 .      S
C793  H793  1.102 .      S
C793  H794  1.108 .      S
C793  H795  1.101 .      S
C794  C795  1.498 .      S
C794  C796  1.484 .      S
C794  H796  1.085 .      S
C795  H797  1.106 .      S
C795  H798  1.107 .      S
C795  H799  1.101 .      S
N145  Zn38  2.170 1_556  S
C798  H800  1.059 1_655  S
C799  H801  1.080 .      S
C800  C803  1.411 .      S
C801  H802  1.064 .      S
N146  Zn50  2.213 1_455  S
C803  O146  1.334 .      S
O146  H803  0.958 .      S
H800  C798  1.059 1_455  S
C804  C805  1.500 .      S
C804  H804  1.082 .      S
C804  H805  1.104 .      S
C804  H806  1.101 .      S
C805  C806  1.501 .      S
C805  C807  1.471 .      S
C805  H807  1.093 .      S
C806  H808  1.101 .      S
C806  H809  1.106 .      S
C806  H810  1.103 .      S
C809  H811  1.047 .      S
C810  H812  1.075 .      S
C811  C814  1.459 .      S
C812  H813  1.066 .      S
C814  O148  1.340 .      S
O148  H814  0.963 .      S
C815  C816  1.497 1_455  S
C815  H815  1.085 .      S
C815  H816  1.108 .      S
C815  H817  1.101 .      S
C816  C815  1.497 1_655  S
C816  C817  1.495 1_655  S
C816  C818  1.473 .      S
C816  H818  1.089 .      S
C817  C816  1.495 1_455  S
C817  H819  1.107 1_455  S
C817  H820  1.103 .      S
C817  H821  1.086 .      S
N149  Zn38  2.237 1_655  S
C820  H822  1.062 1_655  S
C821  H823  1.081 1_554  S
C822  C825  1.452 .      S
C823  H824  1.073 .      S
C825  O150  1.335 .      S
O150  H825  0.963 .      S
H819  C817  1.107 1_655  S
H822  C820  1.062 1_455  S
H823  C821  1.081 1_556  S
C826  C827  1.516 .      S
C826  H826  1.105 .      S
C826  H827  1.107 .      S
C826  H828  1.098 .      S
C827  C828  1.520 .      S
C827  C829  1.489 .      S
C827  H829  1.105 .      S
C828  H830  1.094 .      S
C828  H831  1.101 .      S
C828  H832  1.093 1_556  S
N151  Zn39  2.189 1_556  S
C831  H833  1.068 .      S
C832  H834  1.065 1_556  S
C833  C836  1.456 .      S
C834  H835  1.065 .      S
C836  O152  1.339 .      S
O152  H836  0.966 .      S
H832  C828  1.093 1_554  S
H834  C832  1.065 1_554  S
C837  C838  1.498 .      S
C837  H837  1.105 .      S
C837  H838  1.103 .      S
C837  H839  1.100 .      S
C838  C839  1.497 .      S
C838  C840  1.483 .      S
C838  H840  1.093 .      S
C839  H841  1.105 .      S
C839  H842  1.097 .      S
C839  H843  1.097 .      S
C842  H844  1.075 .      S
C843  H845  1.081 .      S
C844  C847  1.448 .      S
C845  H846  1.076 .      S
C847  O154  1.342 .      S
O154  H847  0.962 .      S
C848  C849  1.472 1_556  S
C848  H848  1.096 .      S
C848  H849  1.105 .      S
C848  H850  1.102 1_556  S
C849  C848  1.472 1_554  S
C849  C850  1.508 1_554  S
C849  C851  1.503 .      S
C849  H851  1.091 1_554  S
C850  C849  1.508 1_556  S
C850  H852  1.105 .      S
C850  H853  1.109 .      S
C850  H854  1.099 1_556  S
C853  H855  1.064 .      S
C854  H856  1.081 .      S
C855  C858  1.473 .      S
C856  H857  1.079 .      S
C858  O156  1.345 .      S
O156  H858  0.966 .      S
H850  C848  1.102 1_554  S
H851  C849  1.091 1_556  S
H854  C850  1.099 1_554  S
C859  C860  1.498 .      S
C859  H859  1.095 .      S
C859  H860  1.103 .      S
C859  H861  1.103 .      S
C860  C861  1.510 .      S
C860  C862  1.496 .      S
C860  H862  1.086 .      S
C861  H863  1.102 .      S
C861  H864  1.109 .      S
C861  H865  1.107 .      S
C864  H866  1.041 .      S
C865  H867  1.079 .      S
C866  C869  1.465 .      S
C867  H868  1.061 .      S
C869  O158  1.340 .      S
O158  H869  0.964 .      S
C870  C871  1.495 .      S
C870  H870  1.099 .      S
C870  H871  1.107 .      S
C870  H872  1.108 .      S
C871  C872  1.492 .      S
C871  C873  1.497 .      S
C871  H873  1.091 .      S
C872  H874  1.093 .      S
C872  H875  1.105 .      S
C872  H876  1.087 .      S
C875  H877  1.042 .      S
C876  H878  1.080 .      S
C877  C880  1.460 .      S
C878  H879  1.067 .      S
C880  O160  1.343 .      S
O160  H880  0.963 .      S
C881  C882  1.496 .      S
C881  H881  1.069 .      S
C881  H882  1.107 .      S
C881  H883  1.088 .      S
C882  C883  1.477 .      S
C882  C884  1.453 .      S
C882  H884  1.087 .      S
C883  H885  1.102 .      S
C883  H886  1.108 .      S
C883  H887  1.099 .      S
C886  H888  1.065 .      S
C887  H889  1.076 .      S
C888  C891  1.467 .      S
C889  H890  1.062 .      S
C891  O162  1.345 .      S
O162  H891  0.966 .      S
C892  C893  1.504 .      S
C892  H892  1.103 .      S
C892  H893  1.109 .      S
C892  H894  1.100 .      S
C893  C894  1.503 .      S
C893  C895  1.487 .      S
C893  H895  1.090 .      S
C894  H896  1.108 .      S
C894  H897  1.104 .      S
C894  H898  1.098 .      S
C897  H899  1.078 .      S
C898  H900  1.080 .      S
C899  C902  1.466 .      S
C900  H901  1.070 .      S
C902  O164  1.345 .      S
O164  H902  0.966 .      S
C903  C904  1.501 .      S
C903  H903  1.092 .      S
C903  H904  1.108 .      S
C903  H905  1.106 .      S
C904  C905  1.528 .      S
C904  C906  1.519 .      S
C904  H906  1.099 .      S
C905  H907  1.106 .      S
C905  H908  1.095 .      S
C905  H909  1.106 .      S
C908  H910  1.076 .      S
C909  H911  1.081 .      S
C910  C913  1.468 .      S
C911  H912  1.080 .      S
C913  O166  1.347 .      S
O166  H913  0.966 .      S
C914  C915  1.512 .      S
C914  H914  1.106 .      S
C914  H915  1.106 .      S
C914  H916  1.099 .      S
C915  C916  1.517 .      S
C915  C917  1.464 .      S
C915  H917  1.084 .      S
C916  H918  1.100 .      S
C916  H919  1.105 .      S
C916  H920  1.095 .      S
C919  H921  1.068 .      S
C920  H922  1.080 .      S
C921  C924  1.473 .      S
C922  H923  1.061 .      S
C924  O168  1.349 .      S
O168  H924  0.965 .      S
C925  C926  1.507 .      S
C925  H925  1.101 .      S
C925  H926  1.106 .      S
C925  H927  1.091 .      S
C926  C927  1.510 .      S
C926  C928  1.487 .      S
C926  H928  1.097 .      S
C927  H929  1.106 .      S
C927  H930  1.105 .      S
C927  H931  1.084 .      S
C930  H932  1.064 .      S
C931  H933  1.073 1_554  S
C932  C935  1.470 1_554  S
C933  H934  1.063 .      S
C935  C932  1.470 1_556  S
C935  O170  1.343 .      S
O170  H935  0.966 .      S
H933  C931  1.073 1_556  S
C936  C937  1.507 .      S
C936  H936  1.086 .      S
C936  H937  1.088 .      S
C936  H938  1.109 .      S
C937  C938  1.504 .      S
C937  C939  1.452 .      S
C937  H939  1.080 .      S
C938  H940  1.104 .      S
C938  H941  1.098 .      S
C938  H942  1.098 .      S
C941  H943  1.080 .      S
C942  H944  1.069 .      S
C943  C946  1.468 .      S
C944  H945  1.060 .      S
C946  O172  1.342 .      S
O172  H946  0.963 .      S
C947  C948  1.497 .      S
C947  H947  1.097 .      S
C947  H948  1.109 .      S
C947  H949  1.093 .      S
C948  C949  1.460 .      S
C948  C950  1.474 .      S
C948  H950  1.096 .      S
C949  H951  1.087 .      S
C949  H952  1.107 1_554  S
C949  H953  1.104 .      S
C952  H954  1.055 .      S
C953  H955  1.080 .      S
C954  C957  1.468 .      S
C955  H956  1.060 .      S
C957  O174  1.346 .      S
O174  H957  0.966 .      S
H952  C949  1.107 1_556  S
C958  C959  1.505 .      S
C958  H958  1.083 .      S
C958  H959  1.106 .      S
C958  H960  1.088 .      S
C959  C960  1.488 .      S
C959  C961  1.466 .      S
C959  H961  1.096 .      S
C960  H962  1.089 .      S
C960  H963  1.084 .      S
C960  H964  1.101 .      S
C963  H965  1.030 .      S
C964  H966  1.081 .      S
C965  C968  1.460 .      S
C966  H967  1.070 .      S
C968  O176  1.336 .      S
O176  H968  0.962 1_565  S
H968  O176  0.962 1_545  S
C969  C970  1.503 .      S
C969  H969  1.096 .      S
C969  H970  1.105 .      S
C969  H971  1.100 .      S
C970  C971  1.514 .      S
C970  C972  1.483 .      S
C970  H972  1.089 .      S
C971  H973  1.094 .      S
C971  H974  1.107 .      S
C971  H975  1.104 .      S
C974  H976  1.069 .      S
C975  H977  1.081 1_554  S
C976  C979  1.471 .      S
C977  H978  1.054 .      S
C979  O178  1.348 .      S
O178  H979  0.963 .      S
H977  C975  1.081 1_556  S
C980  C981  1.500 .      S
C980  H980  1.108 .      S
C980  H981  1.107 .      S
C980  H982  1.078 .      S
C981  C982  1.480 .      S
C981  C983  1.517 .      S
C981  H983  1.092 .      S
C982  H984  1.090 .      S
C982  H985  1.109 .      S
C982  H986  1.100 .      S
C985  H987  1.063 .      S
C986  H988  1.081 .      S
C987  C990  1.464 .      S
C988  H989  1.075 .      S
C990  O180  1.346 .      S
O180  H990  0.966 .      S
C991  C992  1.505 .      S
C991  H991  1.093 .      S
C991  H992  1.103 1_565  S
C991  H993  1.102 .      S
C992  C993  1.416 .      S
C992  C994  1.443 .      S
C992  H994  1.077 .      S
C993  H995  1.089 .      S
C993  H996  1.088 .      S
C993  H997  1.083 .      S
C996  H998  1.074 .      S
C997  H999  1.081 .      S
C998  C1001 1.466 .      S
C999  H1000 1.077 .      S
C1001 O182  1.347 .      S
O182  H1001 0.966 .      S
H992  C991  1.103 1_545  S
C1002 C1003 1.509 .      S
C1002 H1002 1.096 .      S
C1002 H1003 1.106 .      S
C1002 H1004 1.105 .      S
C1003 C1004 1.465 .      S
C1003 C1005 1.450 .      S
C1003 H1005 1.081 .      S
C1004 H1006 1.081 .      S
C1004 H1007 1.101 .      S
C1004 H1008 1.066 .      S
C1007 H1009 1.071 .      S
C1008 H1010 1.080 .      S
C1009 C1012 1.468 .      S
C1010 H1011 1.063 .      S
N184  Zn7   2.183 1_545  S
C1012 O184  1.343 .      S
O184  H1012 0.966 1_545  S
H1012 O184  0.966 1_565  S
C1013 C1014 1.516 .      S
C1013 H1013 1.108 .      S
C1013 H1014 1.105 .      S
C1013 H1015 1.098 .      S
C1014 C1015 1.483 .      S
C1014 C1016 1.489 .      S
C1014 H1016 1.080 .      S
C1015 H1017 1.107 .      S
C1015 H1018 1.100 .      S
C1015 H1019 1.084 .      S
C1018 H1020 1.061 .      S
C1019 H1021 1.081 .      S
C1020 C1023 1.469 .      S
C1021 H1022 1.066 .      S
C1023 O186  1.347 .      S
O186  H1023 0.966 .      S
C1024 C1025 1.476 .      S
C1024 H1024 1.106 .      S
C1024 H1025 1.107 .      S
C1024 H1026 1.098 .      S
C1025 C1026 1.475 .      S
C1025 C1027 1.489 .      S
C1025 H1027 1.078 .      S
C1026 H1028 1.094 .      S
C1026 H1029 1.099 .      S
C1026 H1030 1.095 .      S
C1029 H1031 1.054 .      S
C1030 H1032 1.080 .      S
C1031 C1034 1.468 .      S
C1032 H1033 1.072 .      S
C1034 O188  1.346 .      S
O188  H1034 0.966 .      S
C1035 C1036 1.469 .      S
C1035 H1035 1.090 .      S
C1035 H1036 1.094 .      S
C1035 H1037 1.066 .      S
C1036 C1037 1.521 .      S
C1036 C1038 1.463 .      S
C1036 H1038 1.097 .      S
C1037 H1039 1.091 .      S
C1037 H1040 1.108 .      S
C1037 H1041 1.095 .      S
C1040 H1042 1.080 .      S
C1041 H1043 1.081 .      S
C1042 C1045 1.467 .      S
C1043 H1044 1.073 .      S
C1045 O190  1.346 .      S
O190  H1045 0.966 .      S
C1046 C1047 1.536 .      S
C1046 H1046 1.108 .      S
C1046 H1047 1.098 .      S
C1046 H1048 1.083 .      S
C1047 C1048 1.497 .      S
C1047 C1049 1.500 .      S
C1047 H1049 1.061 .      S
C1048 H1050 1.090 .      S
C1048 H1051 1.093 .      S
C1048 H1052 1.107 .      S
C1051 H1053 1.066 .      S
C1052 H1054 1.080 .      S
C1053 C1056 1.468 .      S
C1054 H1055 1.076 .      S
C1056 O192  1.346 .      S
O192  H1056 0.966 .      S
C1057 C1058 1.516 .      S
C1057 H1057 1.106 .      S
C1057 H1058 1.106 .      S
C1057 H1059 1.095 .      S
C1058 C1059 1.502 .      S
C1058 C1060 1.500 .      S
C1058 H1060 1.096 .      S
C1059 H1061 1.084 .      S
C1059 H1062 1.068 .      S
C1059 H1063 1.098 .      S
C1062 H1064 1.070 .      S
C1063 H1065 1.081 .      S
C1064 C1067 1.468 .      S
C1065 H1066 1.078 .      S
C1067 O194  1.346 .      S
O194  H1067 0.966 .      S
C1068 C1069 1.490 .      S
C1068 H1068 1.080 .      S
C1068 H1069 1.101 .      S
C1068 H1070 1.105 .      S
C1069 C1070 1.518 .      S
C1069 C1071 1.516 .      S
C1069 H1071 1.100 .      S
C1070 H1072 1.104 .      S
C1070 H1073 1.099 .      S
C1070 H1074 1.099 .      S
C1073 H1075 1.064 .      S
C1074 H1076 1.076 .      S
C1075 C1078 1.480 .      S
C1076 H1077 1.075 .      S
C1078 O196  1.342 .      S
O196  H1078 0.966 .      S
C1079 C1080 1.461 .      S
C1079 H1079 1.065 .      S
C1079 H1080 1.102 .      S
C1079 H1081 1.099 .      S
C1080 C1081 1.508 .      S
C1080 C1082 1.463 .      S
C1080 H1082 1.090 .      S
C1081 H1083 1.097 .      S
C1081 H1084 1.108 .      S
C1081 H1085 1.095 .      S
C1084 H1086 1.065 .      S
C1085 H1087 1.081 .      S
C1086 C1089 1.468 .      S
C1087 H1088 1.078 .      S
C1089 O198  1.345 .      S
O198  H1089 0.966 .      S
C1090 C1091 1.481 .      S
C1090 H1090 1.086 .      S
C1090 H1091 1.099 1_545  S
C1090 H1092 1.104 .      S
C1091 C1092 1.500 1_545  S
C1091 C1093 1.475 .      S
C1091 H1093 1.103 .      S
C1092 C1091 1.500 1_565  S
C1092 H1094 1.105 .      S
C1092 H1095 1.093 .      S
C1092 H1096 1.095 .      S
C1095 H1097 1.076 .      S
C1096 H1098 1.078 .      S
C1097 C1100 1.450 .      S
C1098 H1099 1.068 .      S
C1100 O200  1.333 .      S
O200  H1100 0.956 .      S
H1091 C1090 1.099 1_565  S
C1101 C1102 1.512 .      S
C1101 H1101 1.096 .      S
C1101 H1102 1.108 .      S
C1101 H1103 1.100 1_565  S
C1102 C1103 1.508 .      S
C1102 C1104 1.515 .      S
C1102 H1104 1.098 1_565  S
C1103 H1105 1.109 .      S
C1103 H1106 1.105 .      S
C1103 H1107 1.086 .      S
C1106 H1108 1.056 .      S
C1107 H1109 1.072 .      S
C1108 C1111 1.470 .      S
C1109 H1110 1.067 .      S
C1111 O202  1.346 .      S
O202  H1111 0.966 .      S
H1103 C1101 1.100 1_545  S
H1104 C1102 1.098 1_545  S
C1112 C1113 1.507 .      S
C1112 H1112 1.103 .      S
C1112 H1113 1.103 .      S
C1112 H1114 1.102 1_545  S
C1113 C1114 1.488 .      S
C1113 C1115 1.484 .      S
C1113 H1115 1.077 .      S
C1114 H1116 1.090 .      S
C1114 H1117 1.107 .      S
C1114 H1118 1.097 .      S
C1117 H1119 1.075 .      S
C1118 H1120 1.080 .      S
C1119 C1122 1.467 .      S
C1120 H1121 1.080 .      S
C1122 O204  1.346 .      S
O204  H1122 0.966 .      S
H1114 C1112 1.102 1_565  S
C1123 C1124 1.431 .      S
C1123 H1123 1.100 .      S
C1123 H1124 1.053 .      S
C1123 H1125 1.079 .      S
C1124 C1125 1.482 .      S
C1124 C1126 1.401 .      S
C1124 H1126 1.063 .      S
C1125 H1127 1.094 .      S
C1125 H1128 1.093 .      S
C1125 H1129 1.093 .      S
C1128 H1130 1.069 .      S
C1129 H1131 1.081 .      S
C1130 C1133 1.468 .      S
C1131 H1132 1.071 .      S
C1133 O206  1.346 .      S
O206  H1133 0.966 .      S
C1134 C1135 1.472 .      S
C1134 H1134 1.070 .      S
C1134 H1135 1.089 .      S
C1134 H1136 1.102 .      S
C1135 C1136 1.498 .      S
C1135 C1137 1.378 .      S
C1135 H1137 1.072 .      S
C1136 H1138 1.104 .      S
C1136 H1139 1.089 1_565  S
C1136 H1140 1.099 1_565  S
C1139 H1141 1.081 .      S
C1140 H1142 1.081 .      S
C1141 C1144 1.467 .      S
C1142 H1143 1.076 .      S
C1144 O208  1.346 .      S
O208  H1144 0.966 .      S
H1139 C1136 1.089 1_545  S
H1140 C1136 1.099 1_545  S
C1145 C1146 1.497 .      S
C1145 H1145 1.095 .      S
C1145 H1146 1.097 .      S
C1145 H1147 1.095 .      S
C1146 C1147 1.486 .      S
C1146 C1148 1.441 .      S
C1146 H1148 1.061 .      S
C1147 H1149 1.083 .      S
C1147 H1150 1.082 .      S
C1147 H1151 1.082 .      S
C1150 H1152 1.076 .      S
C1151 H1153 1.081 .      S
C1152 C1155 1.466 .      S
C1153 H1154 1.072 .      S
C1155 O210  1.346 .      S
O210  H1155 0.966 .      S
C1156 C1157 1.524 .      S
C1156 H1156 1.101 1_655  S
C1156 H1157 1.108 .      S
C1156 H1158 1.106 .      S
C1157 C1158 1.491 .      S
C1157 C1159 1.506 .      S
C1157 H1159 1.054 .      S
C1158 H1160 1.090 .      S
C1158 H1161 1.105 .      S
C1158 H1162 1.096 .      S
C1161 H1163 1.053 .      S
C1162 H1164 1.075 .      S
C1163 C1166 1.468 .      S
C1164 H1165 1.069 .      S
C1166 O212  1.345 .      S
O212  H1166 0.966 .      S
H1156 C1156 1.101 1_455  S
C1167 C1168 1.521 .      S
C1167 H1167 1.095 .      S
C1167 H1168 1.081 .      S
C1167 H1169 1.102 .      S
C1168 C1169 1.517 .      S
C1168 C1170 1.400 .      S
C1168 H1170 1.087 .      S
C1169 H1171 1.109 .      S
C1169 H1172 1.093 .      S
C1169 H1173 1.070 .      S
C1172 H1174 1.065 .      S
C1173 H1175 1.062 .      S
C1174 C1177 1.463 .      S
C1175 H1176 1.030 .      S
C1177 O214  1.333 .      S
O214  H1177 0.960 .      S
C1178 C1179 1.511 1_445  S
C1178 H1178 1.092 1_545  S
C1178 H1179 1.104 .      S
C1178 H1180 1.105 .      S
C1179 C1178 1.511 1_665  S
C1179 C1180 1.531 1_565  S
C1179 C1181 1.533 .      S
C1179 H1181 1.088 .      S
C1180 C1179 1.531 1_545  S
C1180 H1182 1.108 .      S
C1180 H1183 1.099 .      S
C1180 H1184 1.103 .      S
C1183 H1185 1.063 .      S
C1184 H1186 1.081 1_655  S
C1185 C1188 1.468 .      S
C1186 H1187 1.065 .      S
C1188 O216  1.347 .      S
O216  H1188 0.966 .      S
H1178 C1178 1.092 1_565  S
H1186 C1184 1.081 1_455  S
C1189 C1190 1.528 .      S
C1189 H1189 1.104 .      S
C1189 H1190 1.107 .      S
C1189 H1191 1.102 .      S
C1190 C1191 1.479 .      S
C1190 C1192 1.519 1_455  S
C1190 H1192 1.064 .      S
C1191 H1193 1.093 1_455  S
C1191 H1194 1.102 .      S
C1191 H1195 1.078 1_455  S
C1192 C1190 1.519 1_655  S
N217  Zn51  2.092 1_545  S
C1194 H1196 1.068 1_545  S
C1195 H1197 1.075 .      S
C1196 C1199 1.462 .      S
C1197 H1198 1.075 .      S
C1199 O218  1.338 .      S
O218  H1199 0.963 .      S
H1193 C1191 1.093 1_655  S
H1195 C1191 1.078 1_655  S
H1196 C1194 1.068 1_565  S
C1200 C1201 1.530 .      S
C1200 H1200 1.105 .      S
C1200 H1201 1.100 .      S
C1200 H1202 1.101 .      S
C1201 C1202 1.486 .      S
C1201 C1203 1.509 .      S
C1201 H1203 1.103 .      S
C1202 H1204 1.107 .      S
C1202 H1205 1.102 .      S
C1202 H1206 1.092 .      S
C1205 H1207 1.068 .      S
C1206 H1208 1.080 .      S
C1207 C1210 1.467 .      S
C1208 H1209 1.080 .      S
C1210 O220  1.345 .      S
O220  H1210 0.966 .      S
C1211 C1212 1.513 .      S
C1211 H1211 1.092 .      S
C1211 H1212 1.103 .      S
C1211 H1213 1.105 .      S
C1212 C1213 1.433 .      S
C1212 C1214 1.422 .      S
C1212 H1214 1.096 .      S
C1213 H1215 1.097 .      S
C1213 H1216 1.093 .      S
C1213 H1217 1.105 .      S
C1216 H1218 1.055 .      S
C1217 H1219 1.067 .      S
C1218 C1221 1.460 .      S
C1219 H1220 1.041 .      S
C1221 O222  1.342 .      S
O222  H1221 0.961 .      S
C1222 C1223 1.452 .      S
C1222 H1222 1.091 .      S
C1222 H1223 1.100 .      S
C1222 H1224 1.102 .      S
C1223 C1224 1.510 .      S
C1223 C1225 1.457 .      S
C1223 H1225 1.099 .      S
C1224 H1226 1.103 .      S
C1224 H1227 1.097 .      S
C1224 H1228 1.101 .      S
C1227 H1229 1.069 .      S
C1228 H1230 1.080 .      S
C1229 C1232 1.468 .      S
C1230 H1231 1.078 .      S
C1232 O224  1.346 .      S
O224  H1232 0.966 .      S
C1233 C1234 1.504 .      S
C1233 H1233 1.084 .      S
C1233 H1234 1.099 .      S
C1233 H1235 1.085 .      S
C1234 C1235 1.536 .      S
C1234 C1236 1.401 .      S
C1234 H1236 1.079 .      S
C1235 H1237 1.104 .      S
C1235 H1238 1.098 .      S
C1235 H1239 1.094 .      S
C1238 H1240 1.037 .      S
C1239 H1241 1.054 .      S
C1240 C1243 1.456 .      S
C1241 H1242 1.044 .      S
C1243 O226  1.347 .      S
O226  H1243 0.965 .      S
C1244 C1245 1.491 .      S
C1244 H1244 1.081 .      S
C1244 H1245 1.101 .      S
C1244 H1246 1.107 .      S
C1245 C1246 1.519 .      S
C1245 C1247 1.495 .      S
C1245 H1247 1.084 .      S
C1246 H1248 1.109 .      S
C1246 H1249 1.094 .      S
C1246 H1250 1.078 .      S
C1249 H1251 1.061 .      S
C1250 H1252 1.080 .      S
C1251 C1254 1.466 .      S
C1252 H1253 1.081 .      S
C1254 O228  1.345 .      S
O228  H1254 0.966 .      S
C1255 C1256 1.492 .      S
C1255 H1255 1.106 .      S
C1255 H1256 1.108 .      S
C1255 H1257 1.093 .      S
C1256 C1257 1.493 .      S
C1256 C1258 1.488 .      S
C1256 H1258 1.084 .      S
C1257 H1259 1.096 .      S
C1257 H1260 1.073 .      S
C1257 H1261 1.100 .      S
C1260 H1262 1.075 .      S
C1261 H1263 1.080 .      S
C1262 C1265 1.468 .      S
C1263 H1264 1.074 .      S
C1265 O230  1.345 .      S
O230  H1265 0.966 .      S
C1266 C1267 1.515 .      S
C1266 H1266 1.104 .      S
C1266 H1267 1.101 .      S
C1266 H1268 1.100 .      S
C1267 C1268 1.517 .      S
C1267 C1269 1.459 .      S
C1267 H1269 1.102 .      S
C1268 H1270 1.095 .      S
C1268 H1271 1.103 .      S
C1268 H1272 1.102 .      S
C1271 H1273 1.068 .      S
C1272 H1274 1.081 .      S
C1273 C1276 1.462 .      S
C1274 H1275 1.066 .      S
C1276 O232  1.345 .      S
O232  H1276 0.966 .      S
C1277 C1278 1.459 .      S
C1277 H1277 1.099 .      S
C1277 H1278 1.103 .      S
C1277 H1279 1.096 .      S
C1278 C1279 1.508 .      S
C1278 C1280 1.459 .      S
C1278 H1280 1.080 .      S
C1279 H1281 1.099 .      S
C1279 H1282 1.076 .      S
C1279 H1283 1.100 .      S
C1282 H1284 1.080 .      S
C1283 H1285 1.081 .      S
C1284 C1287 1.468 .      S
C1285 H1286 1.061 .      S
C1287 O234  1.346 .      S
O234  H1287 0.966 .      S
C1288 C1289 1.507 .      S
C1288 H1288 1.091 .      S
C1288 H1289 1.109 .      S
C1288 H1290 1.096 .      S
C1289 C1290 1.522 .      S
C1289 C1291 1.515 .      S
C1289 H1291 1.098 .      S
C1290 H1292 1.106 .      S
C1290 H1293 1.107 .      S
C1290 H1294 1.104 .      S
C1293 H1295 1.066 .      S
C1294 H1296 1.072 .      S
C1295 C1298 1.432 .      S
C1296 H1297 1.065 .      S
C1298 O236  1.324 .      S
O236  H1298 0.959 .      S
C1299 C1300 1.502 .      S
C1299 H1299 1.082 .      S
C1299 H1300 1.109 .      S
C1299 H1301 1.098 .      S
C1300 C1301 1.507 .      S
C1300 C1302 1.479 .      S
C1300 H1302 1.086 .      S
C1301 H1303 1.102 .      S
C1301 H1304 1.104 .      S
C1301 H1305 1.101 .      S
C1304 H1306 1.080 .      S
C1305 H1307 1.081 .      S
C1306 C1309 1.467 .      S
C1307 H1308 1.075 .      S
C1309 O238  1.346 .      S
O238  H1309 0.966 .      S
C1310 C1311 1.514 .      S
C1310 H1310 1.108 .      S
C1310 H1311 1.095 .      S
C1310 H1312 1.107 .      S
C1311 C1312 1.484 .      S
C1311 C1313 1.485 .      S
C1311 H1313 1.065 .      S
C1312 H1314 1.107 .      S
C1312 H1315 1.085 .      S
C1312 H1316 1.098 .      S
C1315 H1317 1.073 .      S
C1316 H1318 1.080 .      S
C1317 C1320 1.468 .      S
C1318 H1319 1.077 .      S
C1320 O240  1.345 .      S
O240  H1320 0.966 .      S
C1321 C1322 1.513 .      S
C1321 H1321 1.101 .      S
C1321 H1322 1.102 .      S
C1321 H1323 1.096 .      S
C1322 C1323 1.514 .      S
C1322 C1324 1.445 .      S
C1322 H1324 1.074 .      S
C1323 H1325 1.089 .      S
C1323 H1326 1.099 .      S
C1323 H1327 1.105 .      S
C1326 H1328 1.077 .      S
C1327 H1329 1.081 .      S
C1328 C1331 1.462 .      S
C1329 H1330 1.076 .      S
C1331 O242  1.340 .      S
O242  H1331 0.965 .      S
C1332 C1333 1.506 .      S
C1332 H1332 1.092 .      S
C1332 H1333 1.109 .      S
C1332 H1334 1.094 .      S
C1333 C1334 1.489 .      S
C1333 C1335 1.514 .      S
C1333 H1335 1.105 .      S
C1334 H1336 1.094 .      S
C1334 H1337 1.105 .      S
C1334 H1338 1.101 .      S
C1337 H1339 1.070 .      S
C1338 H1340 1.079 .      S
C1339 C1342 1.462 .      S
C1340 H1341 1.078 .      S
C1342 O244  1.342 .      S
O244  H1342 0.963 .      S
C1343 C1344 1.494 1_556  S
C1343 H1343 1.073 .      S
C1343 H1344 1.087 .      S
C1343 H1345 1.088 .      S
C1344 C1343 1.494 1_554  S
C1344 C1345 1.497 .      S
C1344 C1346 1.475 1_554  S
C1344 H1346 1.080 .      S
C1345 H1347 1.108 .      S
C1345 H1348 1.097 .      S
C1345 H1349 1.103 .      S
C1346 C1344 1.475 1_556  S
C1348 H1350 1.076 .      S
C1349 H1351 1.062 .      S
C1350 C1353 1.458 .      S
C1351 H1352 1.059 .      S
C1353 O246  1.345 .      S
O246  H1353 0.960 .      S
C1354 C1355 1.507 .      S
C1354 H1354 1.101 .      S
C1354 H1355 1.104 .      S
C1354 H1356 1.101 .      S
C1355 C1356 1.510 .      S
C1355 C1357 1.507 .      S
C1355 H1357 1.078 .      S
C1356 H1358 1.093 .      S
C1356 H1359 1.108 .      S
C1356 H1360 1.098 .      S
C1359 H1361 1.065 .      S
C1360 H1362 1.077 .      S
C1361 C1364 1.467 .      S
C1362 H1363 1.054 .      S
N248  Zn57  2.130 1_554  S
C1364 O248  1.346 .      S
O248  H1364 0.964 .      S
C1365 C1366 1.510 .      S
C1365 H1365 1.094 .      S
C1365 H1366 1.097 .      S
C1365 H1367 1.103 .      S
C1366 C1367 1.507 1_556  S
C1366 C1368 1.466 .      S
C1366 H1368 1.082 .      S
C1367 C1366 1.507 1_554  S
C1367 H1369 1.105 .      S
C1367 H1370 1.087 .      S
C1367 H1371 1.100 .      S
C1370 H1372 1.074 .      S
C1371 H1373 1.061 .      S
C1372 C1375 1.431 .      S
C1373 H1374 1.047 .      S
C1375 O250  1.345 .      S
O250  H1375 0.964 .      S
C1376 C1377 1.518 .      S
C1376 H1376 1.104 1_554  S
C1376 H1377 1.109 .      S
C1376 H1378 1.102 .      S
C1377 C1378 1.498 .      S
C1377 C1379 1.510 .      S
C1377 H1379 1.095 .      S
C1378 H1380 1.098 .      S
C1378 H1381 1.107 .      S
C1378 H1382 1.099 .      S
C1381 H1383 1.066 .      S
C1382 H1384 1.080 .      S
C1383 C1386 1.465 .      S
C1384 H1385 1.067 .      S
C1386 O252  1.342 .      S
O252  H1386 0.964 .      S
H1376 C1376 1.104 1_556  S
C1387 C1388 1.483 .      S
C1387 H1387 1.095 .      S
C1387 H1388 1.104 .      S
C1387 H1389 1.100 .      S
C1388 C1389 1.503 .      S
C1388 C1390 1.485 .      S
C1388 H1390 1.105 .      S
C1389 H1391 1.097 .      S
C1389 H1392 1.106 .      S
C1389 H1393 1.085 .      S
C1392 H1394 1.080 .      S
C1393 H1395 1.081 .      S
C1394 C1397 1.476 .      S
C1395 H1396 1.076 .      S
C1397 O254  1.350 .      S
O254  H1397 0.964 .      S
C1398 C1399 1.483 .      S
C1398 H1398 1.097 .      S
C1398 H1399 1.102 .      S
C1398 H1400 1.109 .      S
C1399 C1400 1.495 .      S
C1399 C1401 1.456 .      S
C1399 H1401 1.079 .      S
C1400 H1402 1.090 .      S
C1400 H1403 1.105 .      S
C1400 H1404 1.099 .      S
C1403 H1405 1.080 .      S
C1404 H1406 1.072 .      S
C1405 C1408 1.452 .      S
C1406 H1407 1.080 .      S
C1408 O256  1.345 .      S
O256  H1408 0.966 .      S
C1409 C1410 1.516 .      S
C1409 H1409 1.105 .      S
C1409 H1410 1.108 .      S
C1409 H1411 1.090 .      S
C1410 C1411 1.477 .      S
C1410 C1412 1.498 .      S
C1410 H1412 1.095 .      S
C1411 H1413 1.102 .      S
C1411 H1414 1.109 .      S
C1411 H1415 1.091 .      S
C1414 H1416 1.071 .      S
C1415 H1417 1.081 .      S
C1416 C1419 1.466 .      S
C1417 H1418 1.066 .      S
C1419 O258  1.345 .      S
O258  H1419 0.965 .      S
C1420 C1421 1.500 .      S
C1420 H1420 1.093 .      S
C1420 H1421 1.106 1_554  S
C1420 H1422 1.099 .      S
C1421 C1422 1.464 .      S
C1421 C1423 1.478 .      S
C1421 H1423 1.091 .      S
C1422 H1424 1.092 .      S
C1422 H1425 1.107 1_554  S
C1422 H1426 1.105 .      S
C1425 H1427 1.046 .      S
C1426 H1428 1.076 .      S
C1427 C1430 1.466 .      S
C1428 H1429 1.074 .      S
C1430 O260  1.340 .      S
O260  H1430 0.965 .      S
H1421 C1420 1.106 1_556  S
H1425 C1422 1.107 1_556  S
C1431 C1432 1.502 .      S
C1431 H1431 1.109 .      S
C1431 H1432 1.108 .      S
C1431 H1433 1.069 .      S
C1432 C1433 1.481 .      S
C1432 C1434 1.496 .      S
C1432 H1434 1.079 .      S
C1433 H1435 1.073 .      S
C1433 H1436 1.098 .      S
C1433 H1437 1.099 .      S
C1436 H1438 1.064 .      S
C1437 H1439 1.080 .      S
C1438 C1441 1.468 .      S
C1439 H1440 1.071 .      S
C1441 O262  1.347 .      S
O262  H1441 0.966 .      S
C1442 C1443 1.512 .      S
C1442 H1442 1.091 .      S
C1442 H1443 1.101 .      S
C1442 H1444 1.106 .      S
C1443 C1444 1.488 .      S
C1443 C1445 1.479 .      S
C1443 H1445 1.079 .      S
C1444 H1446 1.106 .      S
C1444 H1447 1.086 .      S
C1444 H1448 1.096 .      S
C1447 H1449 1.053 .      S
C1448 H1450 1.080 .      S
C1449 C1452 1.452 .      S
C1450 H1451 1.074 .      S
C1452 O264  1.336 .      S
O264  H1452 0.964 .      S
C4    N1    1.387 .      A
C4    N2    1.382 .      A
N1    C5    1.350 .      A
C5    C6    1.374 .      A
C5    C10   1.370 .      A
C6    C7    1.380 .      A
C7    C8    1.391 .      A
C8    C9    1.389 .      A
C9    C10   1.375 .      A
C10   N2    1.356 .      A
C15   N3    1.404 .      A
C15   N4    1.378 .      A
N3    C16   1.347 .      A
C16   C17   1.369 .      A
C16   C21   1.364 .      A
C17   C18   1.378 .      A
C18   C19   1.388 .      A
C19   C20   1.386 .      A
C20   C21   1.372 .      A
C21   N4    1.352 .      A
C26   N5    1.399 1_565  A
C26   N6    1.385 .      A
N5    C26   1.399 1_545  A
N5    C27   1.340 .      A
C27   C28   1.354 .      A
C27   C32   1.362 1_545  A
C28   C29   1.382 .      A
C29   C30   1.386 .      A
C30   C31   1.388 1_545  A
C31   C30   1.388 1_565  A
C31   C32   1.378 .      A
C32   C27   1.362 1_565  A
C32   N6    1.353 .      A
C37   N7    1.382 .      A
C37   N8    1.385 .      A
N7    C38   1.351 .      A
C38   C39   1.374 .      A
C38   C43   1.359 .      A
C39   C40   1.383 .      A
C40   C41   1.392 .      A
C41   C42   1.388 .      A
C42   C43   1.372 .      A
C43   N8    1.342 .      A
C48   N9    1.382 .      A
C48   N10   1.373 .      A
N9    C49   1.356 .      A
C49   C50   1.361 .      A
C49   C54   1.379 .      A
C50   C51   1.382 .      A
C51   C52   1.382 1_565  A
C52   C51   1.382 1_545  A
C52   C53   1.362 1_545  A
C53   C52   1.362 1_565  A
C53   C54   1.360 .      A
C54   N10   1.323 .      A
C59   N11   1.390 .      A
C59   N12   1.402 .      A
N11   C60   1.343 .      A
C60   C61   1.367 .      A
C60   C65   1.360 .      A
C61   C62   1.377 .      A
C62   C63   1.388 .      A
C63   C64   1.390 .      A
C64   C65   1.377 .      A
C65   N12   1.353 .      A
C70   N13   1.415 .      A
C70   N14   1.396 .      A
N13   C71   1.345 .      A
C71   C72   1.365 .      A
C71   C76   1.355 .      A
C72   C73   1.377 .      A
C73   C74   1.368 .      A
C74   C75   1.373 .      A
C75   C76   1.367 .      A
C76   N14   1.355 .      A
C81   N15   1.404 .      A
C81   N16   1.372 .      A
N15   C82   1.359 .      A
C82   C83   1.369 .      A
C82   C87   1.378 .      A
C83   C84   1.384 .      A
C84   C85   1.391 .      A
C85   C86   1.383 .      A
C86   C87   1.375 .      A
C87   N16   1.346 .      A
C92   N17   1.390 .      A
C92   N18   1.365 .      A
N17   C93   1.350 .      A
C93   C94   1.373 .      A
C93   C98   1.379 .      A
C94   C95   1.381 .      A
C95   C96   1.393 .      A
C96   C97   1.389 .      A
C97   C98   1.377 .      A
C98   N18   1.357 .      A
C103  N19   1.415 .      A
C103  N20   1.376 .      A
N19   C104  1.335 .      A
C104  C105  1.370 .      A
C104  C109  1.351 .      A
C105  C106  1.380 .      A
C106  C107  1.383 .      A
C107  C108  1.362 .      A
C108  C109  1.340 .      A
C109  N20   1.345 .      A
C114  N21   1.394 .      A
C114  N22   1.404 .      A
N21   C115  1.347 .      A
C115  C116  1.364 .      A
C115  C120  1.363 .      A
C116  C117  1.374 .      A
C117  C118  1.381 .      A
C118  C119  1.384 .      A
C119  C120  1.369 .      A
C120  N22   1.348 .      A
C125  N23   1.400 .      A
C125  N24   1.389 .      A
N23   C126  1.349 .      A
C126  C127  1.365 .      A
C126  C131  1.363 .      A
C127  C128  1.384 .      A
C128  C129  1.385 .      A
C129  C130  1.380 .      A
C130  C131  1.369 .      A
C131  N24   1.339 .      A
C136  N25   1.390 1_565  A
C136  N26   1.357 .      A
N25   C136  1.390 1_545  A
N25   C137  1.364 1_545  A
C137  N25   1.364 1_565  A
C137  C138  1.374 1_565  A
C137  C142  1.380 .      A
C138  C137  1.374 1_545  A
C138  C139  1.380 1_545  A
C139  C138  1.380 1_565  A
C139  C140  1.387 .      A
C140  C141  1.386 .      A
C141  C142  1.374 .      A
C142  N26   1.346 .      A
C147  N27   1.413 .      A
C147  N28   1.420 .      A
N27   C148  1.360 .      A
C148  C149  1.368 .      A
C148  C153  1.361 .      A
C149  C150  1.374 1_545  A
C150  C149  1.374 1_565  A
C150  C151  1.363 1_565  A
C151  C150  1.363 1_545  A
C151  C152  1.362 .      A
C152  C153  1.362 .      A
C153  N28   1.334 .      A
C158  N29   1.409 .      A
C158  N30   1.397 .      A
N29   C159  1.351 .      A
C159  C160  1.337 .      A
C159  C164  1.363 .      A
C160  C161  1.383 .      A
C161  C162  1.382 .      A
C162  C163  1.390 .      A
C163  C164  1.379 .      A
C164  N30   1.337 .      A
C169  N31   1.415 .      A
C169  N32   1.382 .      A
N31   C170  1.348 .      A
C170  C171  1.369 .      A
C170  C175  1.350 .      A
C171  C172  1.369 .      A
C172  C173  1.374 .      A
C173  C174  1.342 .      A
C174  C175  1.318 .      A
C175  N32   1.308 .      A
C180  N33   1.408 .      A
C180  N34   1.389 .      A
N33   C181  1.346 .      A
C181  C182  1.371 .      A
C181  C186  1.369 .      A
C182  C183  1.375 .      A
C183  C184  1.383 .      A
C184  C185  1.389 .      A
C185  C186  1.365 .      A
C186  N34   1.358 .      A
C191  N35   1.387 .      A
C191  N36   1.376 .      A
N35   C192  1.335 .      A
C192  C193  1.343 .      A
C192  C197  1.367 .      A
C193  C194  1.375 .      A
C194  C195  1.385 .      A
C195  C196  1.370 .      A
C196  C197  1.344 .      A
C197  N36   1.327 .      A
C202  N37   1.401 .      A
C202  N38   1.376 .      A
N37   C203  1.353 .      A
C203  C204  1.367 .      A
C203  C208  1.352 .      A
C204  C205  1.391 1_565  A
C205  C204  1.391 1_545  A
C205  C206  1.395 .      A
C206  C207  1.366 .      A
C207  C208  1.355 1_545  A
C208  C207  1.355 1_565  A
C208  N38   1.324 .      A
C213  N39   1.389 .      A
C213  N40   1.373 .      A
N39   C214  1.347 .      A
C214  C215  1.357 .      A
C214  C219  1.350 .      A
C215  C216  1.382 .      A
C216  C217  1.374 .      A
C217  C218  1.371 .      A
C218  C219  1.374 .      A
C219  N40   1.341 .      A
C224  N41   1.378 .      A
C224  N42   1.369 .      A
N41   C225  1.348 .      A
C225  C226  1.373 .      A
C225  C230  1.356 .      A
C226  C227  1.381 .      A
C227  C228  1.390 .      A
C228  C229  1.387 .      A
C229  C230  1.373 .      A
C230  N42   1.343 .      A
C235  N43   1.398 .      A
C235  N44   1.374 .      A
N43   C236  1.356 .      A
C236  C237  1.371 .      A
C236  C241  1.372 .      A
C237  C238  1.383 .      A
C238  C239  1.390 .      A
C239  C240  1.384 .      A
C240  C241  1.374 .      A
C241  N44   1.350 .      A
C246  N45   1.416 1_655  A
C246  N46   1.406 1_655  A
N45   C246  1.416 1_455  A
N45   C247  1.347 .      A
C247  C248  1.359 .      A
C247  C252  1.360 .      A
C248  C249  1.383 .      A
C249  C250  1.387 .      A
C250  C251  1.385 .      A
C251  C252  1.375 .      A
C252  N46   1.345 .      A
N46   C246  1.406 1_455  A
C257  N47   1.402 .      A
C257  N48   1.395 .      A
N47   C258  1.351 1_655  A
C258  N47   1.351 1_455  A
C258  C259  1.368 .      A
C258  C263  1.363 .      A
C259  C260  1.378 .      A
C260  C261  1.386 .      A
C261  C262  1.388 .      A
C262  C263  1.376 .      A
C263  N48   1.349 1_455  A
N48   C263  1.349 1_655  A
C268  N49   1.382 .      A
C268  N50   1.365 .      A
N49   C269  1.359 .      A
C269  C270  1.368 .      A
C269  C274  1.378 .      A
C270  C271  1.385 .      A
C271  C272  1.396 .      A
C272  C273  1.386 .      A
C273  C274  1.372 .      A
C274  N50   1.346 .      A
C279  N51   1.401 .      A
C279  N52   1.386 .      A
N51   C280  1.360 .      A
C280  C281  1.347 .      A
C280  C285  1.349 .      A
C281  C282  1.367 .      A
C282  C283  1.363 .      A
C283  C284  1.365 .      A
C284  C285  1.364 .      A
C285  N52   1.333 .      A
C290  N53   1.399 .      A
C290  N54   1.389 .      A
N53   C291  1.342 .      A
C291  C292  1.372 .      A
C291  C296  1.353 .      A
C292  C293  1.383 .      A
C293  C294  1.389 .      A
C294  C295  1.357 .      A
C295  C296  1.343 .      A
C296  N54   1.332 .      A
C301  N55   1.405 .      A
C301  N56   1.397 .      A
N55   C302  1.356 .      A
C302  C303  1.380 .      A
C302  C307  1.359 .      A
C303  C304  1.368 .      A
C304  C305  1.375 .      A
C305  C306  1.388 .      A
C306  C307  1.375 .      A
C307  N56   1.360 .      A
C312  N57   1.405 .      A
C312  N58   1.368 .      A
N57   C313  1.351 .      A
C313  C314  1.349 .      A
C313  C318  1.349 .      A
C314  C315  1.381 .      A
C315  C316  1.395 .      A
C316  C317  1.342 .      A
C317  C318  1.338 .      A
C318  N58   1.306 .      A
C323  N59   1.382 1_655  A
C323  N60   1.375 1_655  A
N59   C323  1.382 1_455  A
N59   C324  1.350 .      A
C324  C325  1.374 .      A
C324  C329  1.364 .      A
C325  C326  1.384 .      A
C326  C327  1.390 .      A
C327  C328  1.381 .      A
C328  C329  1.372 .      A
C329  N60   1.351 .      A
N60   C323  1.375 1_455  A
C334  N61   1.403 1_554  A
C334  N62   1.389 .      A
N61   C334  1.403 1_556  A
N61   C335  1.338 .      A
C335  C336  1.367 .      A
C335  C340  1.357 .      A
C336  C337  1.378 .      A
C337  C338  1.388 .      A
C338  C339  1.388 .      A
C339  C340  1.380 .      A
C340  N62   1.359 1_556  A
N62   C340  1.359 1_554  A
C345  N63   1.408 1_554  A
C345  N64   1.400 .      A
N63   C345  1.408 1_556  A
N63   C346  1.354 .      A
C346  C347  1.369 .      A
C346  C351  1.363 .      A
C347  C348  1.378 .      A
C348  C349  1.383 .      A
C349  C350  1.382 .      A
C350  C351  1.371 .      A
C351  N64   1.340 1_556  A
N64   C351  1.340 1_554  A
C356  N65   1.395 .      A
C356  N66   1.384 .      A
N65   C357  1.345 .      A
C357  C358  1.374 .      A
C357  C362  1.364 .      A
C358  C359  1.381 .      A
C359  C360  1.391 .      A
C360  C361  1.387 .      A
C361  C362  1.370 .      A
C362  N66   1.352 .      A
C367  N67   1.403 .      A
C367  N68   1.395 1_554  A
N67   C368  1.332 1_554  A
C368  N67   1.332 1_556  A
C368  C369  1.332 .      A
C368  C373  1.362 .      A
C369  C370  1.356 .      A
C370  C371  1.373 .      A
C371  C372  1.395 .      A
C372  C373  1.381 .      A
C373  N68   1.360 .      A
N68   C367  1.395 1_556  A
C378  N69   1.401 .      A
C378  N70   1.385 .      A
N69   C379  1.332 .      A
C379  C380  1.358 .      A
C379  C384  1.370 .      A
C380  C381  1.359 .      A
C381  C382  1.374 .      A
C382  C383  1.390 .      A
C383  C384  1.375 .      A
C384  N70   1.363 .      A
C389  N71   1.396 1_554  A
C389  N72   1.372 .      A
N71   C389  1.396 1_556  A
N71   C390  1.346 .      A
C390  C391  1.372 .      A
C390  C395  1.379 .      A
C391  C392  1.377 .      A
C392  C393  1.385 .      A
C393  C394  1.389 .      A
C394  C395  1.383 .      A
C395  N72   1.368 1_556  A
N72   C395  1.368 1_554  A
C400  N73   1.421 .      A
C400  N74   1.386 .      A
N73   C401  1.371 .      A
C401  C402  1.372 .      A
C401  C406  1.359 .      A
C402  C403  1.387 .      A
C403  C404  1.389 .      A
C404  C405  1.359 .      A
C405  C406  1.341 .      A
C406  N74   1.313 .      A
C411  N75   1.391 .      A
C411  N76   1.385 .      A
N75   C412  1.349 .      A
C412  C413  1.374 .      A
C412  C417  1.372 .      A
C413  C414  1.377 .      A
C414  C415  1.382 .      A
C415  C416  1.382 .      A
C416  C417  1.380 .      A
C417  N76   1.365 .      A
C422  N77   1.412 .      A
C422  N78   1.439 .      A
N77   C423  1.321 .      A
C423  C424  1.346 1_565  A
C423  C428  1.367 .      A
C424  C423  1.346 1_545  A
C424  C425  1.353 .      A
C425  C426  1.375 .      A
C426  C427  1.394 1_545  A
C427  C426  1.394 1_565  A
C427  C428  1.362 .      A
C428  N78   1.361 .      A
C433  N79   1.405 .      A
C433  N80   1.387 .      A
N79   C434  1.349 .      A
C434  C435  1.371 .      A
C434  C439  1.368 .      A
C435  C436  1.382 .      A
C436  C437  1.384 .      A
C437  C438  1.383 .      A
C438  C439  1.375 .      A
C439  N80   1.351 .      A
C444  N81   1.409 .      A
C444  N82   1.383 .      A
N81   C445  1.334 1_455  A
C445  N81   1.334 1_655  A
C445  C446  1.330 .      A
C445  C450  1.358 .      A
C446  C447  1.370 .      A
C447  C448  1.373 .      A
C448  C449  1.328 .      A
C449  C450  1.326 .      A
C450  N82   1.295 1_655  A
N82   C450  1.295 1_455  A
C455  N83   1.415 .      A
C455  N84   1.416 .      A
N83   C456  1.350 .      A
C456  C457  1.372 .      A
C456  C461  1.376 .      A
C457  C458  1.368 .      A
C458  C459  1.377 .      A
C459  C460  1.392 .      A
C460  C461  1.384 .      A
C461  N84   1.367 .      A
C466  N85   1.401 .      A
C466  N86   1.366 .      A
N85   C467  1.356 .      A
C467  C468  1.368 .      A
C467  C472  1.368 .      A
C468  C469  1.379 .      A
C469  C470  1.396 .      A
C470  C471  1.345 .      A
C471  C472  1.334 .      A
C472  N86   1.306 .      A
C477  N87   1.403 .      A
C477  N88   1.380 .      A
N87   C478  1.351 .      A
C478  C479  1.372 .      A
C478  C483  1.365 .      A
C479  C480  1.377 .      A
C480  C481  1.387 .      A
C481  C482  1.388 .      A
C482  C483  1.378 .      A
C483  N88   1.351 .      A
C488  N89   1.380 .      A
C488  N90   1.407 .      A
N89   C489  1.347 .      A
C489  C490  1.366 .      A
C489  C494  1.357 .      A
C490  C491  1.376 .      A
C491  C492  1.383 .      A
C492  C493  1.385 .      A
C493  C494  1.379 .      A
C494  N90   1.352 .      A
C499  N91   1.421 .      A
C499  N92   1.396 .      A
N91   C500  1.346 .      A
C500  C501  1.353 .      A
C500  C505  1.358 .      A
C501  C502  1.383 .      A
C502  C503  1.386 .      A
C503  C504  1.344 .      A
C504  C505  1.335 .      A
C505  N92   1.315 .      A
C510  N93   1.402 .      A
C510  N94   1.409 .      A
N93   C511  1.342 .      A
C511  C512  1.344 .      A
C511  C516  1.360 .      A
C512  C513  1.376 .      A
C513  C514  1.380 .      A
C514  C515  1.385 .      A
C515  C516  1.361 .      A
C516  N94   1.348 .      A
C521  N95   1.413 1_565  A
C521  N96   1.407 .      A
N95   C521  1.413 1_545  A
N95   C522  1.345 .      A
C522  C523  1.364 .      A
C522  C527  1.369 1_545  A
C523  C524  1.372 .      A
C524  C525  1.384 1_545  A
C525  C524  1.384 1_565  A
C525  C526  1.393 .      A
C526  C527  1.376 .      A
C527  C522  1.369 1_565  A
C527  N96   1.354 .      A
C532  N97   1.418 .      A
C532  N98   1.393 .      A
N97   C533  1.369 .      A
C533  C534  1.381 .      A
C533  C538  1.373 .      A
C534  C535  1.379 .      A
C535  C536  1.376 1_554  A
C536  C535  1.376 1_556  A
C536  C537  1.378 1_556  A
C537  C536  1.378 1_554  A
C537  C538  1.360 .      A
C538  N98   1.340 .      A
C543  N99   1.414 .      A
C543  N100  1.404 .      A
N99   C544  1.348 .      A
C544  C545  1.366 .      A
C544  C549  1.366 .      A
C545  C546  1.376 .      A
C546  C547  1.374 .      A
C547  C548  1.383 .      A
C548  C549  1.374 .      A
C549  N100  1.359 .      A
C554  N101  1.404 .      A
C554  N102  1.393 .      A
N101  C555  1.355 .      A
C555  C556  1.371 .      A
C555  C560  1.373 .      A
C556  C557  1.373 .      A
C557  C558  1.376 .      A
C558  C559  1.381 .      A
C559  C560  1.373 .      A
C560  N102  1.350 .      A
C565  N103  1.388 .      A
C565  N104  1.383 .      A
N103  C566  1.338 .      A
C566  C567  1.373 .      A
C566  C571  1.357 .      A
C567  C568  1.380 .      A
C568  C569  1.390 .      A
C569  C570  1.388 .      A
C570  C571  1.369 .      A
C571  N104  1.357 .      A
C576  N105  1.377 .      A
C576  N106  1.411 .      A
N105  C577  1.354 .      A
C577  C578  1.371 .      A
C577  C582  1.384 .      A
C578  C579  1.384 .      A
C579  C580  1.390 .      A
C580  C581  1.385 .      A
C581  C582  1.372 .      A
C582  N106  1.348 .      A
C587  N107  1.431 .      A
C587  N108  1.417 .      A
N107  C588  1.322 .      A
C588  C589  1.341 .      A
C588  C593  1.367 .      A
C589  C590  1.339 .      A
C590  C591  1.362 .      A
C591  C592  1.372 .      A
C592  C593  1.357 .      A
C593  N108  1.358 .      A
C598  N109  1.428 .      A
C598  N110  1.379 .      A
N109  C599  1.364 .      A
C599  C600  1.375 .      A
C599  C604  1.355 .      A
C600  C601  1.389 .      A
C601  C602  1.387 .      A
C602  C603  1.363 .      A
C603  C604  1.353 .      A
C604  N110  1.316 .      A
C609  N111  1.390 .      A
C609  N112  1.401 .      A
N111  C610  1.332 1_554  A
C610  N111  1.332 1_556  A
C610  C611  1.367 .      A
C610  C615  1.369 1_556  A
C611  C612  1.373 .      A
C612  C613  1.386 .      A
C613  C614  1.392 1_556  A
C614  C613  1.392 1_554  A
C614  C615  1.375 .      A
C615  C610  1.369 1_554  A
C615  N112  1.365 .      A
C620  N113  1.412 .      A
C620  N114  1.405 .      A
N113  C621  1.339 .      A
C621  C622  1.366 .      A
C621  C626  1.355 .      A
C622  C623  1.378 .      A
C623  C624  1.387 .      A
C624  C625  1.376 .      A
C625  C626  1.336 .      A
C626  N114  1.333 .      A
C631  N115  1.391 .      A
C631  N116  1.404 .      A
N115  C632  1.344 .      A
C632  C633  1.369 .      A
C632  C637  1.372 .      A
C633  C634  1.381 .      A
C634  C635  1.392 .      A
C635  C636  1.386 .      A
C636  C637  1.371 .      A
C637  N116  1.349 .      A
C642  N117  1.404 1_554  A
C642  N118  1.390 .      A
N117  C642  1.404 1_556  A
N117  C643  1.331 1_556  A
C643  N117  1.331 1_554  A
C643  C644  1.357 .      A
C643  C648  1.360 .      A
C644  C645  1.344 .      A
C645  C646  1.376 .      A
C646  C647  1.381 .      A
C647  C648  1.352 .      A
C648  N118  1.344 .      A
C653  N119  1.407 .      A
C653  N120  1.382 1_554  A
N119  C654  1.321 .      A
C654  C655  1.343 .      A
C654  C659  1.355 .      A
C655  C656  1.353 .      A
C656  C657  1.373 .      A
C657  C658  1.358 .      A
C658  C659  1.341 .      A
C659  N120  1.328 1_554  A
N120  C653  1.382 1_556  A
N120  C659  1.328 1_556  A
C664  N121  1.388 .      A
C664  N122  1.358 .      A
N121  C665  1.364 .      A
C665  C666  1.382 .      A
C665  C670  1.361 .      A
C666  C667  1.371 .      A
C667  C668  1.375 .      A
C668  C669  1.368 .      A
C669  C670  1.360 .      A
C670  N122  1.338 .      A
C675  N123  1.428 .      A
C675  N124  1.407 .      A
N123  C676  1.333 .      A
C676  C677  1.366 .      A
C676  C681  1.356 .      A
C677  C678  1.364 .      A
C678  C679  1.376 .      A
C679  C680  1.358 .      A
C680  C681  1.317 .      A
C681  N124  1.339 .      A
C686  N125  1.421 .      A
C686  N126  1.381 .      A
N125  C687  1.355 .      A
C687  C688  1.360 .      A
C687  C692  1.358 .      A
C688  C689  1.366 .      A
C689  C690  1.377 .      A
C690  C691  1.357 .      A
C691  C692  1.360 .      A
C692  N126  1.331 .      A
C697  N127  1.406 .      A
C697  N128  1.404 .      A
N127  C698  1.338 .      A
C698  C699  1.366 .      A
C698  C703  1.375 .      A
C699  C700  1.373 .      A
C700  C701  1.383 .      A
C701  C702  1.391 .      A
C702  C703  1.371 .      A
C703  N128  1.365 .      A
C708  N129  1.412 .      A
C708  N130  1.403 .      A
N129  C709  1.353 .      A
C709  C710  1.371 1_655  A
C709  C714  1.379 .      A
C710  C709  1.371 1_455  A
C710  C711  1.387 .      A
C711  C712  1.397 1_455  A
C712  C711  1.397 1_655  A
C712  C713  1.387 .      A
C713  C714  1.369 .      A
C714  N130  1.346 .      A
C719  N131  1.375 .      A
C719  N132  1.370 .      A
N131  C720  1.319 .      A
C720  C721  1.336 .      A
C720  C725  1.351 .      A
C721  C722  1.358 .      A
C722  C723  1.373 .      A
C723  C724  1.392 .      A
C724  C725  1.372 .      A
C725  N132  1.359 .      A
C730  N133  1.406 .      A
C730  N134  1.373 .      A
N133  C731  1.325 .      A
C731  C732  1.355 .      A
C731  C736  1.367 .      A
C732  C733  1.361 .      A
C733  C734  1.371 .      A
C734  C735  1.399 .      A
C735  C736  1.393 .      A
C736  N134  1.381 .      A
C741  N135  1.414 .      A
C741  N136  1.422 .      A
N135  C742  1.341 .      A
C742  C743  1.357 .      A
C742  C747  1.365 .      A
C743  C744  1.372 .      A
C744  C745  1.373 .      A
C745  C746  1.394 .      A
C746  C747  1.381 .      A
C747  N136  1.359 .      A
C752  N137  1.416 .      A
C752  N138  1.380 1_554  A
N137  C753  1.356 1_554  A
C753  N137  1.356 1_556  A
C753  C754  1.362 .      A
C753  C758  1.373 .      A
C754  C755  1.382 .      A
C755  C756  1.378 .      A
C756  C757  1.376 .      A
C757  C758  1.374 .      A
C758  N138  1.347 .      A
N138  C752  1.380 1_556  A
C763  N139  1.377 1_554  A
C763  N140  1.396 .      A
N139  C763  1.377 1_556  A
N139  C764  1.313 1_556  A
C764  N139  1.313 1_554  A
C764  C765  1.351 1_565  A
C764  C769  1.368 .      A
C765  C764  1.351 1_545  A
C765  C766  1.348 .      A
C766  C767  1.376 .      A
C767  C768  1.396 .      A
C768  C769  1.384 1_545  A
C769  C768  1.384 1_565  A
C769  N140  1.374 .      A
C774  N141  1.411 .      A
C774  N142  1.393 .      A
N141  C775  1.339 .      A
C775  C776  1.354 .      A
C775  C780  1.369 .      A
C776  C777  1.368 .      A
C777  C778  1.384 .      A
C778  C779  1.388 .      A
C779  C780  1.367 .      A
C780  N142  1.347 .      A
C785  N143  1.407 .      A
C785  N144  1.388 .      A
N143  C786  1.353 .      A
C786  C787  1.369 .      A
C786  C791  1.361 .      A
C787  C788  1.374 .      A
C788  C789  1.384 .      A
C789  C790  1.393 .      A
C790  C791  1.374 .      A
C791  N144  1.347 .      A
C796  N145  1.411 .      A
C796  N146  1.401 .      A
N145  C797  1.323 .      A
C797  C798  1.360 1_456  A
C797  C802  1.348 1_455  A
C798  C797  1.360 1_654  A
C798  C799  1.356 .      A
C799  C800  1.376 1_554  A
C800  C799  1.376 1_556  A
C800  C801  1.379 .      A
C801  C802  1.324 .      A
C802  C797  1.348 1_655  A
C802  N146  1.332 1_655  A
N146  C802  1.332 1_455  A
C807  N147  1.399 .      A
C807  N148  1.384 .      A
N147  C808  1.374 .      A
C808  C809  1.384 .      A
C808  C813  1.362 .      A
C809  C810  1.363 1_554  A
C810  C809  1.363 1_556  A
C810  C811  1.358 .      A
C811  C812  1.385 1_556  A
C812  C811  1.385 1_554  A
C812  C813  1.379 .      A
C813  N148  1.339 .      A
C818  N149  1.409 .      A
C818  N150  1.401 .      A
N149  C819  1.342 .      A
C819  C820  1.355 .      A
C819  C824  1.368 .      A
C820  C821  1.366 .      A
C821  C822  1.386 .      A
C822  C823  1.379 .      A
C823  C824  1.362 .      A
C824  N150  1.338 .      A
C829  N151  1.410 .      A
C829  N152  1.393 .      A
N151  C830  1.344 .      A
C830  C831  1.359 1_556  A
C830  C835  1.365 .      A
C831  C830  1.359 1_554  A
C831  C832  1.377 1_554  A
C832  C831  1.377 1_556  A
C832  C833  1.391 .      A
C833  C834  1.355 .      A
C834  C835  1.347 .      A
C835  N152  1.327 .      A
C840  N153  1.402 .      A
C840  N154  1.400 .      A
N153  C841  1.343 .      A
C841  C842  1.371 .      A
C841  C846  1.372 .      A
C842  C843  1.373 .      A
C843  C844  1.386 .      A
C844  C845  1.386 .      A
C845  C846  1.365 .      A
C846  N154  1.348 .      A
C851  N155  1.404 .      A
C851  N156  1.393 .      A
N155  C852  1.343 .      A
C852  C853  1.355 .      A
C852  C857  1.356 .      A
C853  C854  1.375 .      A
C854  C855  1.384 .      A
C855  C856  1.398 .      A
C856  C857  1.377 .      A
C857  N156  1.350 .      A
C862  N157  1.398 .      A
C862  N158  1.403 .      A
N157  C863  1.339 .      A
C863  C864  1.345 .      A
C863  C868  1.350 .      A
C864  C865  1.372 1_554  A
C865  C864  1.372 1_556  A
C865  C866  1.381 .      A
C866  C867  1.392 1_556  A
C867  C866  1.392 1_554  A
C867  C868  1.377 .      A
C868  N158  1.346 .      A
C873  N159  1.404 .      A
C873  N160  1.394 .      A
N159  C874  1.347 .      A
C874  C875  1.353 .      A
C874  C879  1.354 .      A
C875  C876  1.373 .      A
C876  C877  1.377 .      A
C877  C878  1.382 .      A
C878  C879  1.380 .      A
C879  N160  1.350 .      A
C884  N161  1.406 .      A
C884  N162  1.390 .      A
N161  C885  1.357 .      A
C885  C886  1.374 .      A
C885  C890  1.370 .      A
C886  C887  1.375 .      A
C887  C888  1.376 .      A
C888  C889  1.379 .      A
C889  C890  1.379 .      A
C890  N162  1.358 .      A
C895  N163  1.401 .      A
C895  N164  1.380 .      A
N163  C896  1.342 .      A
C896  C897  1.368 .      A
C896  C901  1.359 .      A
C897  C898  1.388 .      A
C898  C899  1.390 .      A
C899  C900  1.386 .      A
C900  C901  1.370 .      A
C901  N164  1.342 .      A
C906  N165  1.396 .      A
C906  N166  1.385 .      A
N165  C907  1.347 .      A
C907  C908  1.372 .      A
C907  C912  1.374 .      A
C908  C909  1.381 .      A
C909  C910  1.387 .      A
C910  C911  1.384 .      A
C911  C912  1.379 .      A
C912  N166  1.349 .      A
C917  N167  1.398 .      A
C917  N168  1.395 .      A
N167  C918  1.341 .      A
C918  C919  1.369 .      A
C918  C923  1.373 .      A
C919  C920  1.373 .      A
C920  C921  1.386 .      A
C921  C922  1.394 .      A
C922  C923  1.376 .      A
C923  N168  1.365 .      A
C928  N169  1.406 .      A
C928  N170  1.393 .      A
N169  C929  1.356 .      A
C929  C930  1.365 .      A
C929  C934  1.362 .      A
C930  C931  1.378 .      A
C931  C932  1.375 .      A
C932  C933  1.380 .      A
C933  C934  1.379 .      A
C934  N170  1.348 .      A
C939  N171  1.397 .      A
C939  N172  1.390 .      A
N171  C940  1.342 .      A
C940  C941  1.371 .      A
C940  C945  1.368 .      A
C941  C942  1.388 .      A
C942  C943  1.393 .      A
C943  C944  1.368 .      A
C944  C945  1.371 .      A
C945  N172  1.360 .      A
C950  N173  1.418 .      A
C950  N174  1.383 .      A
N173  C951  1.350 .      A
C951  C952  1.375 .      A
C951  C956  1.364 .      A
C952  C953  1.376 .      A
C953  C954  1.381 .      A
C954  C955  1.385 .      A
C955  C956  1.381 .      A
C956  N174  1.362 .      A
C961  N175  1.390 .      A
C961  N176  1.390 .      A
N175  C962  1.344 .      A
C962  C963  1.350 .      A
C962  C967  1.354 .      A
C963  C964  1.365 .      A
C964  C965  1.375 .      A
C965  C966  1.393 .      A
C966  C967  1.374 .      A
C967  N176  1.348 .      A
C972  N177  1.373 .      A
C972  N178  1.379 .      A
N177  C973  1.334 .      A
C973  C974  1.372 .      A
C973  C978  1.354 .      A
C974  C975  1.371 .      A
C975  C976  1.377 1_554  A
C976  C975  1.377 1_556  A
C976  C977  1.388 1_556  A
C977  C976  1.388 1_554  A
C977  C978  1.392 .      A
C978  N178  1.376 .      A
C983  N179  1.401 .      A
C983  N180  1.389 .      A
N179  C984  1.360 .      A
C984  C985  1.370 .      A
C984  C989  1.354 .      A
C985  C986  1.383 .      A
C986  C987  1.387 .      A
C987  C988  1.382 .      A
C988  C989  1.366 .      A
C989  N180  1.331 .      A
C994  N181  1.409 .      A
C994  N182  1.404 .      A
N181  C995  1.357 .      A
C995  C996  1.369 .      A
C995  C1000 1.380 .      A
C996  C997  1.385 .      A
C997  C998  1.395 .      A
C998  C999  1.386 .      A
C999  C1000 1.368 .      A
C1000 N182  1.345 .      A
C1005 N183  1.375 .      A
C1005 N184  1.373 .      A
N183  C1006 1.339 .      A
C1006 C1007 1.363 .      A
C1006 C1011 1.366 .      A
C1007 C1008 1.375 .      A
C1008 C1009 1.388 .      A
C1009 C1010 1.393 .      A
C1010 C1011 1.378 .      A
C1011 N184  1.365 .      A
C1016 N185  1.396 .      A
C1016 N186  1.373 .      A
N185  C1017 1.364 .      A
C1017 C1018 1.378 .      A
C1017 C1022 1.358 .      A
C1018 C1019 1.381 .      A
C1019 C1020 1.385 .      A
C1020 C1021 1.381 .      A
C1021 C1022 1.371 .      A
C1022 N186  1.338 .      A
C1027 N187  1.413 .      A
C1027 N188  1.400 .      A
N187  C1028 1.349 .      A
C1028 C1029 1.352 .      A
C1028 C1033 1.361 .      A
C1029 C1030 1.384 .      A
C1030 C1031 1.390 .      A
C1031 C1032 1.389 .      A
C1032 C1033 1.371 .      A
C1033 N188  1.341 .      A
C1038 N189  1.392 .      A
C1038 N190  1.385 .      A
N189  C1039 1.349 .      A
C1039 C1040 1.373 .      A
C1039 C1044 1.370 .      A
C1040 C1041 1.384 .      A
C1041 C1042 1.393 .      A
C1042 C1043 1.386 .      A
C1043 C1044 1.373 .      A
C1044 N190  1.354 .      A
C1049 N191  1.400 .      A
C1049 N192  1.379 .      A
N191  C1050 1.347 .      A
C1050 C1051 1.369 .      A
C1050 C1055 1.369 .      A
C1051 C1052 1.379 .      A
C1052 C1053 1.386 .      A
C1053 C1054 1.384 .      A
C1054 C1055 1.377 .      A
C1055 N192  1.354 .      A
C1060 N193  1.416 .      A
C1060 N194  1.371 .      A
N193  C1061 1.354 .      A
C1061 C1062 1.375 .      A
C1061 C1066 1.361 .      A
C1062 C1063 1.381 .      A
C1063 C1064 1.388 .      A
C1064 C1065 1.385 .      A
C1065 C1066 1.379 .      A
C1066 N194  1.350 .      A
C1071 N195  1.397 .      A
C1071 N196  1.401 .      A
N195  C1072 1.329 .      A
C1072 C1073 1.349 .      A
C1072 C1077 1.346 .      A
C1073 C1074 1.381 .      A
C1074 C1075 1.371 .      A
C1075 C1076 1.405 .      A
C1076 C1077 1.375 .      A
C1077 N196  1.344 .      A
C1082 N197  1.405 .      A
C1082 N198  1.393 .      A
N197  C1083 1.347 .      A
C1083 C1084 1.373 .      A
C1083 C1088 1.371 .      A
C1084 C1085 1.378 .      A
C1085 C1086 1.385 .      A
C1086 C1087 1.387 .      A
C1087 C1088 1.377 .      A
C1088 N198  1.358 .      A
C1093 N199  1.440 .      A
C1093 N200  1.383 .      A
N199  C1094 1.353 .      A
C1094 C1095 1.372 .      A
C1094 C1099 1.358 .      A
C1095 C1096 1.382 .      A
C1096 C1097 1.385 .      A
C1097 C1098 1.364 .      A
C1098 C1099 1.356 .      A
C1099 N200  1.332 .      A
C1104 N201  1.413 .      A
C1104 N202  1.410 1_565  A
N201  C1105 1.361 .      A
C1105 C1106 1.372 .      A
C1105 C1110 1.360 1_565  A
C1106 C1107 1.379 1_565  A
C1107 C1106 1.379 1_545  A
C1107 C1108 1.375 .      A
C1108 C1109 1.379 .      A
C1109 C1110 1.370 .      A
C1110 C1105 1.360 1_545  A
C1110 N202  1.338 .      A
N202  C1104 1.410 1_545  A
C1115 N203  1.397 .      A
C1115 N204  1.409 .      A
N203  C1116 1.361 .      A
C1116 C1117 1.382 .      A
C1116 C1121 1.367 .      A
C1117 C1118 1.387 .      A
C1118 C1119 1.393 .      A
C1119 C1120 1.389 .      A
C1120 C1121 1.371 .      A
C1121 N204  1.345 .      A
C1126 N205  1.385 .      A
C1126 N206  1.361 .      A
N205  C1127 1.350 .      A
C1127 C1128 1.366 .      A
C1127 C1132 1.375 .      A
C1128 C1129 1.383 .      A
C1129 C1130 1.393 .      A
C1130 C1131 1.387 .      A
C1131 C1132 1.373 .      A
C1132 N206  1.354 .      A
C1137 N207  1.398 1_565  A
C1137 N208  1.353 .      A
N207  C1137 1.398 1_545  A
N207  C1138 1.356 1_545  A
C1138 N207  1.356 1_565  A
C1138 C1139 1.373 1_565  A
C1138 C1143 1.387 .      A
C1139 C1138 1.373 1_545  A
C1139 C1140 1.386 .      A
C1140 C1141 1.397 1_545  A
C1141 C1140 1.397 1_565  A
C1141 C1142 1.387 .      A
C1142 C1143 1.369 .      A
C1143 N208  1.349 .      A
C1148 N209  1.411 .      A
C1148 N210  1.370 .      A
N209  C1149 1.350 1_655  A
C1149 N209  1.350 1_455  A
C1149 C1150 1.369 .      A
C1149 C1154 1.377 .      A
C1150 C1151 1.383 .      A
C1151 C1152 1.394 .      A
C1152 C1153 1.388 .      A
C1153 C1154 1.370 .      A
C1154 N210  1.349 1_455  A
N210  C1154 1.349 1_655  A
C1159 N211  1.389 .      A
C1159 N212  1.411 .      A
N211  C1160 1.355 1_655  A
C1160 N211  1.355 1_455  A
C1160 C1161 1.364 .      A
C1160 C1165 1.369 .      A
C1161 C1162 1.380 .      A
C1162 C1163 1.382 .      A
C1163 C1164 1.380 .      A
C1164 C1165 1.370 .      A
C1165 N212  1.336 1_455  A
N212  C1165 1.336 1_655  A
C1170 N213  1.378 .      A
C1170 N214  1.382 .      A
N213  C1171 1.334 .      A
C1171 C1172 1.343 1_565  A
C1171 C1176 1.352 .      A
C1172 C1171 1.343 1_545  A
C1172 C1173 1.360 .      A
C1173 C1174 1.377 .      A
C1174 C1175 1.346 .      A
C1175 C1176 1.324 1_545  A
C1176 C1175 1.324 1_565  A
C1176 N214  1.318 .      A
C1181 N215  1.404 .      A
C1181 N216  1.410 .      A
N215  C1182 1.347 .      A
C1182 C1183 1.364 .      A
C1182 C1187 1.362 .      A
C1183 C1184 1.381 .      A
C1184 C1185 1.390 1_655  A
C1185 C1184 1.390 1_455  A
C1185 C1186 1.384 .      A
C1186 C1187 1.371 1_455  A
C1187 C1186 1.371 1_655  A
C1187 N216  1.350 .      A
C1192 N217  1.373 .      A
C1192 N218  1.372 .      A
N217  C1193 1.335 1_655  A
C1193 N217  1.335 1_455  A
C1193 C1194 1.363 .      A
C1193 C1198 1.372 .      A
C1194 C1195 1.370 .      A
C1195 C1196 1.381 .      A
C1196 C1197 1.394 .      A
C1197 C1198 1.379 .      A
C1198 N218  1.354 1_455  A
N218  C1198 1.354 1_655  A
C1203 N219  1.399 .      A
C1203 N220  1.396 1_655  A
N219  C1204 1.349 1_655  A
C1204 N219  1.349 1_455  A
C1204 C1205 1.372 .      A
C1204 C1209 1.364 .      A
C1205 C1206 1.380 .      A
C1206 C1207 1.389 .      A
C1207 C1208 1.387 .      A
C1208 C1209 1.376 .      A
C1209 N220  1.349 .      A
N220  C1203 1.396 1_455  A
C1214 N221  1.406 .      A
C1214 N222  1.392 .      A
N221  C1215 1.339 .      A
C1215 C1216 1.338 .      A
C1215 C1220 1.365 .      A
C1216 C1217 1.367 .      A
C1217 C1218 1.366 .      A
C1218 C1219 1.381 .      A
C1219 C1220 1.357 .      A
C1220 N222  1.346 .      A
C1225 N223  1.382 .      A
C1225 N224  1.368 .      A
N223  C1226 1.362 .      A
C1226 C1227 1.377 .      A
C1226 C1231 1.366 .      A
C1227 C1228 1.382 .      A
C1228 C1229 1.390 .      A
C1229 C1230 1.387 .      A
C1230 C1231 1.371 .      A
C1231 N224  1.340 .      A
C1236 N225  1.395 .      A
C1236 N226  1.364 .      A
N225  C1237 1.358 .      A
C1237 C1238 1.336 .      A
C1237 C1242 1.354 .      A
C1238 C1239 1.357 .      A
C1239 C1240 1.364 .      A
C1240 C1241 1.357 .      A
C1241 C1242 1.355 .      A
C1242 N226  1.320 .      A
C1247 N227  1.386 .      A
C1247 N228  1.398 .      A
N227  C1248 1.363 .      A
C1248 C1249 1.369 .      A
C1248 C1253 1.366 .      A
C1249 C1250 1.383 .      A
C1250 C1251 1.390 .      A
C1251 C1252 1.385 .      A
C1252 C1253 1.375 .      A
C1253 N228  1.337 .      A
C1258 N229  1.393 .      A
C1258 N230  1.401 .      A
N229  C1259 1.348 .      A
C1259 C1260 1.368 .      A
C1259 C1264 1.369 .      A
C1260 C1261 1.382 .      A
C1261 C1262 1.393 .      A
C1262 C1263 1.389 .      A
C1263 C1264 1.372 .      A
C1264 N230  1.353 .      A
C1269 N231  1.407 .      A
C1269 N232  1.396 .      A
N231  C1270 1.345 .      A
C1270 C1271 1.369 .      A
C1270 C1275 1.374 .      A
C1271 C1272 1.374 .      A
C1272 C1273 1.384 .      A
C1273 C1274 1.390 .      A
C1274 C1275 1.376 .      A
C1275 N232  1.360 .      A
C1280 N233  1.384 .      A
C1280 N234  1.380 .      A
N233  C1281 1.344 .      A
C1281 C1282 1.371 .      A
C1281 C1286 1.369 .      A
C1282 C1283 1.381 .      A
C1283 C1284 1.393 .      A
C1284 C1285 1.389 .      A
C1285 C1286 1.371 .      A
C1286 N234  1.358 .      A
C1291 N235  1.412 .      A
C1291 N236  1.387 .      A
N235  C1292 1.347 .      A
C1292 C1293 1.354 .      A
C1292 C1297 1.343 .      A
C1293 C1294 1.383 .      A
C1294 C1295 1.390 .      A
C1295 C1296 1.345 .      A
C1296 C1297 1.336 .      A
C1297 N236  1.311 .      A
C1302 N237  1.399 .      A
C1302 N238  1.371 .      A
N237  C1303 1.341 .      A
C1303 C1304 1.369 .      A
C1303 C1308 1.355 .      A
C1304 C1305 1.384 .      A
C1305 C1306 1.393 .      A
C1306 C1307 1.388 .      A
C1307 C1308 1.368 .      A
C1308 N238  1.348 .      A
C1313 N239  1.397 .      A
C1313 N240  1.402 .      A
N239  C1314 1.351 .      A
C1314 C1315 1.365 .      A
C1314 C1319 1.367 .      A
C1315 C1316 1.383 .      A
C1316 C1317 1.391 .      A
C1317 C1318 1.389 .      A
C1318 C1319 1.372 .      A
C1319 N240  1.345 .      A
C1324 N241  1.380 1_554  A
C1324 N242  1.395 .      A
N241  C1324 1.380 1_556  A
N241  C1325 1.342 .      A
C1325 C1326 1.363 .      A
C1325 C1330 1.368 .      A
C1326 C1327 1.368 .      A
C1327 C1328 1.379 .      A
C1328 C1329 1.396 .      A
C1329 C1330 1.390 .      A
C1330 N242  1.367 1_556  A
N242  C1330 1.367 1_554  A
C1335 N243  1.398 .      A
C1335 N244  1.384 1_554  A
N243  C1336 1.357 1_554  A
C1336 N243  1.357 1_556  A
C1336 C1337 1.380 .      A
C1336 C1341 1.350 .      A
C1337 C1338 1.380 .      A
C1338 C1339 1.383 .      A
C1339 C1340 1.383 .      A
C1340 C1341 1.371 .      A
C1341 N244  1.343 .      A
N244  C1335 1.384 1_556  A
C1346 N245  1.409 .      A
C1346 N246  1.373 .      A
N245  C1347 1.347 .      A
C1347 C1348 1.358 .      A
C1347 C1352 1.354 .      A
C1348 C1349 1.396 .      A
C1349 C1350 1.387 .      A
C1350 C1351 1.348 .      A
C1351 C1352 1.337 .      A
C1352 N246  1.314 .      A
C1357 N247  1.391 .      A
C1357 N248  1.398 .      A
N247  C1358 1.351 1_554  A
C1358 N247  1.351 1_556  A
C1358 C1359 1.379 .      A
C1358 C1363 1.363 .      A
C1359 C1360 1.379 .      A
C1360 C1361 1.383 .      A
C1361 C1362 1.380 .      A
C1362 C1363 1.370 .      A
C1363 N248  1.351 1_556  A
N248  C1363 1.351 1_554  A
C1368 N249  1.401 .      A
C1368 N250  1.399 .      A
N249  C1369 1.330 .      A
C1369 C1370 1.354 .      A
C1369 C1374 1.356 .      A
C1370 C1371 1.366 .      A
C1371 C1372 1.361 .      A
C1372 C1373 1.369 .      A
C1373 C1374 1.325 .      A
C1374 N250  1.327 .      A
C1379 N251  1.397 1_554  A
C1379 N252  1.396 .      A
N251  C1379 1.397 1_556  A
N251  C1380 1.341 .      A
C1380 C1381 1.369 .      A
C1380 C1385 1.362 .      A
C1381 C1382 1.373 .      A
C1382 C1383 1.384 .      A
C1383 C1384 1.390 .      A
C1384 C1385 1.378 .      A
C1385 N252  1.360 1_556  A
N252  C1385 1.360 1_554  A
C1390 N253  1.399 .      A
C1390 N254  1.391 .      A
N253  C1391 1.353 .      A
C1391 C1392 1.372 .      A
C1391 C1396 1.368 .      A
C1392 C1393 1.384 .      A
C1393 C1394 1.396 .      A
C1394 C1395 1.391 .      A
C1395 C1396 1.372 .      A
C1396 N254  1.350 .      A
C1401 N255  1.394 .      A
C1401 N256  1.377 .      A
N255  C1402 1.351 .      A
C1402 C1403 1.367 .      A
C1402 C1407 1.363 .      A
C1403 C1404 1.389 .      A
C1404 C1405 1.395 .      A
C1405 C1406 1.366 .      A
C1406 C1407 1.353 .      A
C1407 N256  1.324 .      A
C1412 N257  1.401 .      A
C1412 N258  1.376 .      A
N257  C1413 1.357 .      A
C1413 C1414 1.380 .      A
C1413 C1418 1.360 .      A
C1414 C1415 1.379 1_554  A
C1415 C1414 1.379 1_556  A
C1415 C1416 1.385 .      A
C1416 C1417 1.384 1_556  A
C1417 C1416 1.384 1_554  A
C1417 C1418 1.372 .      A
C1418 N258  1.348 .      A
C1423 N259  1.411 .      A
C1423 N260  1.386 .      A
N259  C1424 1.347 .      A
C1424 C1425 1.352 .      A
C1424 C1429 1.371 .      A
C1425 C1426 1.366 .      A
C1426 C1427 1.379 .      A
C1427 C1428 1.397 .      A
C1428 C1429 1.385 .      A
C1429 N260  1.352 .      A
C1434 N261  1.376 .      A
C1434 N262  1.397 .      A
N261  C1435 1.347 .      A
C1435 C1436 1.371 .      A
C1435 C1440 1.362 .      A
C1436 C1437 1.380 .      A
C1437 C1438 1.389 .      A
C1438 C1439 1.390 .      A
C1439 C1440 1.369 .      A
C1440 N262  1.347 .      A
C1445 N263  1.407 .      A
C1445 N264  1.419 .      A
N263  C1446 1.353 .      A
C1446 C1447 1.356 .      A
C1446 C1451 1.375 .      A
C1447 C1448 1.367 .      A
C1448 C1449 1.369 .      A
C1449 C1450 1.387 .      A
C1450 C1451 1.385 .      A
C1451 N264  1.355 .      A
C11   O1    1.219 .      D
C22   O3    1.219 .      D
C33   O5    1.218 1_565  D
O5    C33   1.218 1_545  D
C44   O7    1.219 .      D
C55   O9    1.217 .      D
C66   O11   1.219 .      D
C77   O13   1.219 .      D
C88   O15   1.219 .      D
C99   O17   1.219 .      D
C110  O19   1.215 .      D
C121  O21   1.218 .      D
C132  O23   1.219 .      D
C143  O25   1.219 .      D
C154  O27   1.216 .      D
C165  O29   1.219 1_655  D
O29   C165  1.219 1_455  D
C176  O31   1.209 .      D
C187  O33   1.219 .      D
C198  O35   1.216 .      D
C209  O37   1.210 .      D
C220  O39   1.216 .      D
C231  O41   1.219 .      D
C242  O43   1.219 .      D
C253  O45   1.219 .      D
C264  O47   1.218 .      D
C275  O49   1.219 .      D
C286  O51   1.215 .      D
C297  O53   1.208 .      D
C308  O55   1.219 .      D
C319  O57   1.207 .      D
C330  O59   1.219 .      D
C341  O61   1.219 .      D
C352  O63   1.219 .      D
C363  O65   1.219 .      D
C374  O67   1.219 .      D
C385  O69   1.219 .      D
C396  O71   1.219 .      D
C407  O73   1.212 .      D
C418  O75   1.219 .      D
C429  O77   1.210 .      D
C440  O79   1.219 .      D
C451  O81   1.203 .      D
C462  O83   1.219 .      D
C473  O85   1.214 .      D
C484  O87   1.219 .      D
C495  O89   1.219 .      D
C506  O91   1.206 .      D
C517  O93   1.219 .      D
C528  O95   1.219 1_565  D
O95   C528  1.219 1_545  D
C539  O97   1.219 .      D
C550  O99   1.218 .      D
C561  O101  1.216 .      D
C572  O103  1.219 .      D
C583  O105  1.219 .      D
C594  O107  1.208 .      D
C605  O109  1.217 .      D
C616  O111  1.219 .      D
C627  O113  1.206 .      D
C638  O115  1.219 .      D
C649  O117  1.214 .      D
C660  O119  1.213 .      D
C671  O121  1.208 1_665  D
O121  C671  1.208 1_445  D
C682  O123  1.211 .      D
C693  O125  1.215 .      D
C704  O127  1.219 .      D
C715  O129  1.219 .      D
C726  O131  1.213 .      D
C737  O133  1.218 .      D
C748  O135  1.216 .      D
C759  O137  1.217 .      D
C770  O139  1.216 .      D
C781  O141  1.218 .      D
C792  O143  1.219 .      D
C803  O145  1.218 .      D
C814  O147  1.219 .      D
C825  O149  1.214 .      D
C836  O151  1.203 .      D
C847  O153  1.217 .      D
C858  O155  1.219 .      D
C869  O157  1.219 .      D
C880  O159  1.219 .      D
C891  O161  1.219 .      D
C902  O163  1.219 .      D
C913  O165  1.219 .      D
C924  O167  1.216 .      D
C935  O169  1.219 .      D
C946  O171  1.212 .      D
C957  O173  1.219 .      D
C968  O175  1.219 .      D
C979  O177  1.219 .      D
C990  O179  1.219 .      D
C1001 O181  1.218 .      D
C1012 O183  1.219 .      D
C1023 O185  1.219 .      D
C1034 O187  1.219 .      D
C1045 O189  1.219 .      D
C1056 O191  1.219 .      D
C1067 O193  1.219 .      D
C1078 O195  1.219 .      D
C1089 O197  1.219 .      D
C1100 O199  1.217 .      D
C1111 O201  1.219 .      D
C1122 O203  1.219 .      D
C1133 O205  1.219 .      D
C1144 O207  1.219 .      D
C1155 O209  1.219 .      D
C1166 O211  1.219 .      D
C1177 O213  1.211 .      D
C1188 O215  1.219 .      D
C1199 O217  1.219 .      D
C1210 O219  1.219 .      D
C1221 O221  1.214 .      D
C1232 O223  1.219 .      D
C1243 O225  1.217 .      D
C1254 O227  1.219 .      D
C1265 O229  1.219 .      D
C1276 O231  1.219 .      D
C1287 O233  1.219 .      D
C1298 O235  1.212 .      D
C1309 O237  1.219 .      D
C1320 O239  1.219 .      D
C1331 O241  1.219 .      D
C1342 O243  1.219 .      D
C1353 O245  1.215 .      D
C1364 O247  1.219 .      D
C1375 O249  1.216 1_556  D
O249  C1375 1.216 1_554  D
C1386 O251  1.219 .      D
C1397 O253  1.219 .      D
C1408 O255  1.210 .      D
C1419 O257  1.219 .      D
C1430 O259  1.219 .      D
C1441 O261  1.219 .      D
C1452 O263  1.219 .      D
