data_str_m1_o12004_SAT
_audit_creation_date              2015-10-01T06:32:52-0700
_symmetry_space_group_name_H-M    P1
_symmetry_Int_Tables_number       1
_space_group_crystal_system       triclinic
loop_
_symmetry_equiv_pos_as_xyz
  x,y,z
_cell_length_a                    24.3205750
_cell_length_b                    23.5625383
_cell_length_c                    22.8865745
_cell_angle_alpha                 76.7772877
_cell_angle_beta                  102.331306
_cell_angle_gamma                 101.924267
_cell_volume                      12300.1590344

loop_
_atom_site_label
_atom_site_type_symbol
_atom_site_description
_atom_site_fract_x
_atom_site_fract_y
_atom_site_fract_z
_atom_type_partial_charge
Zn1   Zn    Zn3+2 0.869041 0.318512 0.414994 0.000000
Zn2   Zn    Zn3+2 0.835558 0.055013 0.440994 0.000000
Zn3   Zn    Zn3+2 0.097772 0.328098 0.609543 0.000000
Zn4   Zn    Zn3+2 0.596308 0.592311 0.669457 0.000000
Zn5   Zn    Zn3+2 0.835212 0.576874 0.914500 0.000000
Zn6   Zn    Zn3+2 0.211515 0.897919 0.531618 0.000000
Zn7   Zn    Zn3+2 0.333429 0.778297 0.399278 0.000000
Zn8   Zn    Zn3+2 0.986501 0.886974 0.326186 0.000000
Zn9   Zn    Zn3+2 0.213210 0.670276 0.752922 0.000000
Zn10  Zn    Zn3+2 0.250554 0.163220 0.506876 0.000000
Zn11  Zn    Zn3+2 0.087354 0.761700 0.185441 0.000000
Zn12  Zn    Zn3+2 0.756044 0.677389 0.322554 0.000000
Zn13  Zn    Zn3+2 0.324410 0.550955 0.613048 0.000000
Zn14  Zn    Zn3+2 0.027948 0.168357 0.275328 0.000000
Zn15  Zn    Zn3+2 0.063923 0.048614 0.670694 0.000000
Zn16  Zn    Zn3+2 0.593458 0.824833 0.436234 0.000000
Zn17  Zn    Zn3+2 0.002015 0.457027 0.751975 0.000000
Zn18  Zn    Zn3+2 0.485975 0.395490 0.491549 0.000000
Zn19  Zn    Zn3+2 0.488456 0.629762 0.261660 0.000000
Zn20  Zn    Zn3+2 0.251712 0.640991 0.019544 0.000000
Zn21  Zn    Zn3+2 0.748427 0.447234 0.543422 0.000000
Zn22  Zn    Zn3+2 0.868377 0.552422 0.190930 0.000000
Zn23  Zn    Zn3+2 0.029251 0.408856 0.030393 0.000000
Zn24  Zn    Zn3+2 0.058062 0.808086 0.902043 0.000000
C1    C     C_3   0.879960 0.253470 0.274574 0.000000
N1    N     N_3   0.880234 0.224629 0.336989 0.000000
C2    C     C_3   0.822957 0.203029 0.346580 0.000000
C3    C     C_R   0.825904 0.186724 0.411864 0.000000
N2    N     N_R   0.811181 0.130216 0.443319 0.000000
C4    C     C_R   0.796142 0.139231 0.492353 0.000000
C5    C     C_R   0.777161 0.096762 0.538377 0.000000
C6    C     C_R   0.761964 0.114208 0.585438 0.000000
C7    C     C_R   0.768013 0.173454 0.585709 0.000000
C8    C     C_R   0.790548 0.215084 0.540226 0.000000
C9    C     C_R   0.805121 0.197831 0.492686 0.000000
N3    N     N_R   0.827033 0.230017 0.442137 0.000000
H1    H     H_    0.923461 0.255184 0.267000 0.000000
H2    H     H_    0.847698 0.227770 0.244671 0.000000
H3    H     H_    0.870862 0.298635 0.266554 0.000000
H4    H     H_    0.896328 0.255396 0.364746 0.000000
H5    H     H_    0.797697 0.238155 0.328109 0.000000
H6    H     H_    0.800576 0.166546 0.324864 0.000000
H7    H     H_    0.776781 0.051315 0.538524 0.000000
H8    H     H_    0.747737 0.082303 0.623376 0.000000
H9    H     H_    0.756378 0.187455 0.622552 0.000000
H10   H     H_    0.794083 0.259957 0.542390 0.000000
C10   C     C_3   0.881158 0.296438 0.615569 0.000000
N4    N     N_3   0.910865 0.281622 0.574471 0.000000
C11   C     C_3   0.953939 0.331576 0.563118 0.000000
C12   C     C_R   0.982162 0.325644 0.516018 0.000000
N5    N     N_R   0.040417 0.330271 0.526190 0.000000
C13   C     C_R   0.049913 0.331949 0.470385 0.000000
C14   C     C_R   0.101143 0.342247 0.452594 0.000000
C15   C     C_R   0.102102 0.344175 0.392776 0.000000
C16   C     C_R   0.051809 0.330921 0.353191 0.000000
C17   C     C_R   0.000114 0.322196 0.371336 0.000000
C18   C     C_R   0.999946 0.324148 0.430481 0.000000
N6    N     N_R   0.955091 0.320680 0.457641 0.000000
H11   H     H_    0.858590 0.255277 0.640204 0.000000
H12   H     H_    0.911640 0.320012 0.648691 0.000000
H13   H     H_    0.851632 0.326543 0.589135 0.000000
H14   H     H_    0.884544 0.281606 0.532696 0.000000
H15   H     H_    0.938219 0.373278 0.556011 0.000000
H16   H     H_    0.986102 0.331580 0.601866 0.000000
H17   H     H_    0.139520 0.350024 0.484323 0.000000
H18   H     H_    0.142254 0.357891 0.377132 0.000000
H19   H     H_    0.051633 0.333861 0.305794 0.000000
H20   H     H_    0.962409 0.321752 0.337363 0.000000
C19   C     C_3   0.657753 0.719192 0.855159 0.000000
N7    N     N_3   0.678135 0.663955 0.860890 0.000000
C20   C     C_3   0.700723 0.667166 0.806219 0.000000
C21   C     C_R   0.706759 0.607111 0.800055 0.000000
N8    N     N_R   0.750729 0.575901 0.837375 0.000000
C22   C     C_R   0.736822 0.527438 0.812524 0.000000
C23   C     C_R   0.764143 0.481135 0.830306 0.000000
C24   C     C_R   0.741660 0.430320 0.807929 0.000000
C25   C     C_R   0.695405 0.430741 0.761783 0.000000
C26   C     C_R   0.674014 0.482128 0.735929 0.000000
C27   C     C_R   0.691613 0.528918 0.765085 0.000000
N9    N     N_R   0.669666 0.579122 0.753525 0.000000
H21   H     H_    0.643639 0.719614 0.898017 0.000000
H22   H     H_    0.692604 0.756971 0.846524 0.000000
H23   H     H_    0.621340 0.723936 0.816917 0.000000
H24   H     H_    0.643681 0.629404 0.863551 0.000000
H25   H     H_    0.670275 0.685292 0.766455 0.000000
H26   H     H_    0.742691 0.696692 0.807312 0.000000
H27   H     H_    0.801562 0.485873 0.862718 0.000000
H28   H     H_    0.760440 0.390720 0.825478 0.000000
H29   H     H_    0.675718 0.390642 0.746610 0.000000
H30   H     H_    0.642160 0.482750 0.696616 0.000000
C28   C     C_3   0.391757 0.996536 0.389011 0.000000
N10   N     N_3   0.348177 0.943956 0.393393 0.000000
C29   C     C_3   0.341254 0.924526 0.456684 0.000000
C30   C     C_R   0.299253 0.867760 0.465795 0.000000
N11   N     N_R   0.255150 0.860704 0.496514 0.000000
C31   C     C_R   0.227547 0.807109 0.491685 0.000000
C32   C     C_R   0.177762 0.781450 0.510370 0.000000
C33   C     C_R   0.146529 0.737279 0.483222 0.000000
C34   C     C_R   0.170848 0.711871 0.448539 0.000000
C35   C     C_R   0.224677 0.733887 0.438054 0.000000
C36   C     C_R   0.250796 0.783795 0.457595 0.000000
N12   N     N_R   0.297925 0.818638 0.442330 0.000000
H31   H     H_    0.393148 0.015758 0.340259 0.000000
H32   H     H_    0.381799 0.029827 0.410739 0.000000
H33   H     H_    0.434085 0.984618 0.411538 0.000000
H34   H     H_    0.365133 0.911435 0.382751 0.000000
H35   H     H_    0.382874 0.923977 0.485073 0.000000
H36   H     H_    0.327592 0.958037 0.473285 0.000000
H37   H     H_    0.161550 0.796104 0.542832 0.000000
H38   H     H_    0.104674 0.720838 0.493653 0.000000
H39   H     H_    0.150000 0.672133 0.433089 0.000000
H40   H     H_    0.243722 0.714322 0.412506 0.000000
C37   C     C_3   0.171427 0.908584 0.293731 0.000000
N13   N     N_3   0.137721 0.922347 0.331493 0.000000
C38   C     C_3   0.138687 0.877465 0.385184 0.000000
C39   C     C_R   0.102502 0.885756 0.425584 0.000000
N14   N     N_R   0.125326 0.883160 0.486303 0.000000
C40   C     C_R   0.078237 0.864413 0.511673 0.000000
C41   C     C_R   0.075430 0.834597 0.569843 0.000000
C42   C     C_R   0.023057 0.808710 0.583871 0.000000
C43   C     C_R   0.974479 0.816502 0.541684 0.000000
C44   C     C_R   0.977509 0.845947 0.483399 0.000000
C45   C     C_R   0.030070 0.865055 0.468066 0.000000
N15   N     N_R   0.043177 0.880124 0.411764 0.000000
H41   H     H_    0.182261 0.948432 0.259148 0.000000
H42   H     H_    0.211176 0.894338 0.321400 0.000000
H43   H     H_    0.145783 0.872583 0.271692 0.000000
H44   H     H_    0.095713 0.918253 0.309928 0.000000
H45   H     H_    0.129217 0.833263 0.374236 0.000000
H46   H     H_    0.181194 0.880876 0.410649 0.000000
H47   H     H_    0.112022 0.823511 0.601449 0.000000
H48   H     H_    0.019751 0.781808 0.627788 0.000000
H49   H     H_    0.933619 0.796211 0.553911 0.000000
H50   H     H_    0.939325 0.849734 0.450559 0.000000
C46   C     C_3   0.359299 0.839883 0.686030 0.000000
N16   N     N_3   0.325680 0.829357 0.627653 0.000000
C47   C     C_3   0.284206 0.775924 0.637924 0.000000
C48   C     C_R   0.234549 0.792167 0.651666 0.000000
N17   N     N_R   0.216650 0.764933 0.706608 0.000000
C49   C     C_R   0.195925 0.809480 0.718187 0.000000
C50   C     C_R   0.167832 0.806606 0.764585 0.000000
C51   C     C_R   0.135327 0.849819 0.758093 0.000000
C52   C     C_R   0.137926 0.898969 0.711136 0.000000
C53   C     C_R   0.170447 0.904024 0.667308 0.000000
C54   C     C_R   0.198010 0.858045 0.671022 0.000000
N18   N     N_R   0.220366 0.848247 0.626193 0.000000
H51   H     H_    0.379684 0.801314 0.710883 0.000000
H52   H     H_    0.393583 0.878377 0.678543 0.000000
H53   H     H_    0.331674 0.850054 0.713534 0.000000
H54   H     H_    0.352662 0.821744 0.602234 0.000000
H55   H     H_    0.271515 0.755286 0.597810 0.000000
H56   H     H_    0.301534 0.744123 0.677499 0.000000
H57   H     H_    0.165076 0.767999 0.800617 0.000000
H58   H     H_    0.106715 0.843870 0.789529 0.000000
H59   H     H_    0.112900 0.932652 0.707054 0.000000
H60   H     H_    0.169813 0.940110 0.628522 0.000000
C55   C     C_3   0.378037 0.992912 0.590030 0.000000
N19   N     N_3   0.320266 0.968031 0.600649 0.000000
C56   C     C_3   0.291224 0.016559 0.597797 0.000000
C57   C     C_R   0.259295 0.032474 0.535506 0.000000
N20   N     N_R   0.242898 0.988694 0.502297 0.000000
C58   C     C_R   0.252256 0.019152 0.445602 0.000000
C59   C     C_R   0.247664 0.999518 0.392448 0.000000
C60   C     C_R   0.261028 0.039410 0.340700 0.000000
C61   C     C_R   0.277952 0.098968 0.341693 0.000000
C62   C     C_R   0.282340 0.118529 0.395049 0.000000
C63   C     C_R   0.271309 0.077354 0.445915 0.000000
N21   N     N_R   0.272923 0.088116 0.500629 0.000000
H61   H     H_    0.403447 0.011214 0.629953 0.000000
H62   H     H_    0.398571 0.957649 0.583752 0.000000
H63   H     H_    0.377350 0.027700 0.548123 0.000000
H64   H     H_    0.323639 0.945261 0.645626 0.000000
H65   H     H_    0.261937 0.002559 0.631158 0.000000
H66   H     H_    0.324141 0.054528 0.607190 0.000000
H67   H     H_    0.239821 0.954037 0.391720 0.000000
H68   H     H_    0.259162 0.023762 0.299373 0.000000
H69   H     H_    0.287227 0.129977 0.300849 0.000000
H70   H     H_    0.292732 0.164786 0.396471 0.000000
C64   C     C_3   0.419510 0.732573 0.642500 0.000000
N22   N     N_3   0.408502 0.713926 0.584131 0.000000
C65   C     C_3   0.347904 0.702267 0.562335 0.000000
C66   C     C_R   0.336648 0.667749 0.513722 0.000000
N23   N     N_R   0.336405 0.694158 0.453183 0.000000
C67   C     C_R   0.327118 0.647636 0.426449 0.000000
C68   C     C_R   0.327449 0.649551 0.366299 0.000000
C69   C     C_R   0.305917 0.598026 0.344763 0.000000
C70   C     C_R   0.288924 0.546455 0.384629 0.000000
C71   C     C_R   0.300378 0.543916 0.447036 0.000000
C72   C     C_R   0.317855 0.596001 0.467537 0.000000
N24   N     N_R   0.325381 0.606523 0.524913 0.000000
H71   H     H_    0.432104 0.780149 0.637685 0.000000
H72   H     H_    0.382493 0.719195 0.665709 0.000000
H73   H     H_    0.456168 0.714389 0.671472 0.000000
H74   H     H_    0.420251 0.672578 0.593325 0.000000
H75   H     H_    0.327134 0.677439 0.599509 0.000000
H76   H     H_    0.330222 0.742756 0.544634 0.000000
H77   H     H_    0.338382 0.690844 0.335740 0.000000
H78   H     H_    0.300717 0.598451 0.296625 0.000000
H79   H     H_    0.270433 0.506768 0.366880 0.000000
H80   H     H_    0.294544 0.502239 0.477588 0.000000
C73   C     C_3   0.446312 0.934456 0.235672 0.000000
N25   N     N_3   0.446159 0.913614 0.300490 0.000000
C74   C     C_3   0.460051 0.854202 0.317697 0.000000
C75   C     C_R   0.467253 0.835913 0.384630 0.000000
N26   N     N_R   0.518627 0.855696 0.419788 0.000000
C76   C     C_R   0.503172 0.863694 0.468228 0.000000
C77   C     C_R   0.538954 0.888381 0.513481 0.000000
C78   C     C_R   0.515423 0.896096 0.559656 0.000000
C79   C     C_R   0.459708 0.870875 0.562676 0.000000
C80   C     C_R   0.426910 0.839237 0.519208 0.000000
C81   C     C_R   0.447165 0.841876 0.467744 0.000000
N27   N     N_R   0.421188 0.823138 0.414456 0.000000
H81   H     H_    0.436359 0.979997 0.222339 0.000000
H82   H     H_    0.488929 0.935120 0.225236 0.000000
H83   H     H_    0.413322 0.905391 0.209501 0.000000
H84   H     H_    0.478647 0.941136 0.323533 0.000000
H85   H     H_    0.426639 0.822647 0.294975 0.000000
H86   H     H_    0.501967 0.856498 0.306243 0.000000
H87   H     H_    0.583091 0.903828 0.510534 0.000000
H88   H     H_    0.540273 0.919437 0.594565 0.000000
H89   H     H_    0.442045 0.876048 0.599972 0.000000
H90   H     H_    0.384487 0.820343 0.522390 0.000000
C82   C     C_3   0.153386 0.583359 0.291962 0.000000
N28   N     N_3   0.180427 0.642251 0.267552 0.000000
C83   C     C_3   0.197005 0.676608 0.315298 0.000000
C84   C     C_R   0.214064 0.740971 0.289279 0.000000
N29   N     N_R   0.266361 0.775622 0.311718 0.000000
C85   C     C_R   0.263688 0.826021 0.269946 0.000000
C86   C     C_R   0.303898 0.875911 0.267782 0.000000
C87   C     C_R   0.293426 0.924636 0.222704 0.000000
C88   C     C_R   0.242347 0.923055 0.181595 0.000000
C89   C     C_R   0.201021 0.872823 0.185296 0.000000
C90   C     C_R   0.213165 0.823747 0.228723 0.000000
N30   N     N_R   0.178829 0.770641 0.238959 0.000000
H91   H     H_    0.185855 0.558708 0.321725 0.000000
H92   H     H_    0.119453 0.584789 0.316738 0.000000
H93   H     H_    0.133510 0.560516 0.253827 0.000000
H94   H     H_    0.148641 0.661123 0.236571 0.000000
H95   H     H_    0.163363 0.669862 0.341536 0.000000
H96   H     H_    0.229801 0.658314 0.348933 0.000000
H97   H     H_    0.342894 0.876041 0.299829 0.000000
H98   H     H_    0.324877 0.964491 0.219975 0.000000
H99   H     H_    0.234152 0.961849 0.147437 0.000000
H100  H     H_    0.160371 0.872470 0.154926 0.000000
C91   C     C_3   0.912936 0.953413 0.414192 0.000000
N31   N     N_3   0.944492 0.954977 0.366584 0.000000
C92   C     C_3   0.959646 0.015818 0.340038 0.000000
C93   C     C_R   0.994662 0.025329 0.292406 0.000000
N32   N     N_R   0.008741 0.978020 0.276892 0.000000
C94   C     C_R   0.041376 0.006749 0.232865 0.000000
C95   C     C_R   0.074164 0.986273 0.201999 0.000000
C96   C     C_R   0.097998 0.023997 0.154786 0.000000
C97   C     C_R   0.088591 0.081644 0.137364 0.000000
C98   C     C_R   0.060128 0.102983 0.171303 0.000000
C99   C     C_R   0.042137 0.066175 0.221675 0.000000
N33   N     N_R   0.018207 0.080744 0.262166 0.000000
H101  H     H_    0.876247 0.916592 0.413280 0.000000
H102  H     H_    0.941208 0.947278 0.458528 0.000000
H103  H     H_    0.896793 0.994834 0.408698 0.000000
H104  H     H_    0.913458 0.940415 0.332589 0.000000
H105  H     H_    0.919352 0.028154 0.315792 0.000000
H106  H     H_    0.982498 0.038550 0.376570 0.000000
H107  H     H_    0.082602 0.942462 0.212349 0.000000
H108  H     H_    0.122238 0.007421 0.129797 0.000000
H109  H     H_    0.103987 0.109986 0.097867 0.000000
H110  H     H_    0.048853 0.146143 0.156106 0.000000
C100  C     C_3   0.933358 0.943635 0.135667 0.000000
N34   N     N_3   0.963988 0.915261 0.193271 0.000000
C101  C     C_3   0.991257 0.872219 0.181342 0.000000
C102  C     C_R   0.026994 0.842007 0.235933 0.000000
N35   N     N_R   0.016736 0.836649 0.292919 0.000000
C103  C     C_R   0.035754 0.786595 0.323795 0.000000
C104  C     C_R   0.033633 0.755777 0.382214 0.000000
C105  C     C_R   0.040483 0.697459 0.395642 0.000000
C106  C     C_R   0.060065 0.674919 0.355649 0.000000
C107  C     C_R   0.073832 0.711208 0.303667 0.000000
C108  C     C_R   0.059544 0.765870 0.287828 0.000000
N36   N     N_R   0.056694 0.800066 0.232545 0.000000
H111  H     H_    0.896055 0.912132 0.118711 0.000000
H112  H     H_    0.918219 0.982427 0.142699 0.000000
H113  H     H_    0.961834 0.959627 0.101312 0.000000
H114  H     H_    0.934498 0.889670 0.218764 0.000000
H115  H     H_    0.954647 0.839103 0.170286 0.000000
H116  H     H_    0.017570 0.892613 0.145753 0.000000
H117  H     H_    0.027112 0.773991 0.417978 0.000000
H118  H     H_    0.035140 0.670257 0.439476 0.000000
H119  H     H_    0.069954 0.630699 0.367748 0.000000
H120  H     H_    0.092199 0.694699 0.274751 0.000000
C109  C     C_3   0.927080 0.697303 0.490491 0.000000
N37   N     N_3   0.886211 0.729090 0.446429 0.000000
C110  C     C_3   0.909680 0.753951 0.391340 0.000000
C111  C     C_R   0.871126 0.786102 0.345515 0.000000
N38   N     N_R   0.814516 0.763942 0.321702 0.000000
C112  C     C_R   0.801163 0.811914 0.279909 0.000000
C113  C     C_R   0.751244 0.815721 0.239318 0.000000
C114  C     C_R   0.749934 0.862587 0.190437 0.000000
C115  C     C_R   0.796312 0.907728 0.186532 0.000000
C116  C     C_R   0.843166 0.907852 0.232992 0.000000
C117  C     C_R   0.846918 0.857574 0.277367 0.000000
N39   N     N_R   0.893543 0.842663 0.318335 0.000000
H121  H     H_    0.935143 0.712080 0.533531 0.000000
H122  H     H_    0.908815 0.649901 0.499775 0.000000
H123  H     H_    0.968260 0.704990 0.475076 0.000000
H124  H     H_    0.879649 0.763549 0.464199 0.000000
H125  H     H_    0.945274 0.788263 0.399858 0.000000
H126  H     H_    0.924324 0.723103 0.371865 0.000000
H127  H     H_    0.714396 0.782628 0.244516 0.000000
H128  H     H_    0.712075 0.864902 0.155888 0.000000
H129  H     H_    0.794109 0.945259 0.149225 0.000000
H130  H     H_    0.876857 0.945644 0.231999 0.000000
C118  C     C_3   0.363990 0.485441 0.803628 0.000000
N40   N     N_3   0.343445 0.522953 0.746354 0.000000
C119  C     C_3   0.305203 0.556689 0.757170 0.000000
C120  C     C_R   0.284755 0.600137 0.702312 0.000000
N41   N     N_R   0.278425 0.588104 0.645903 0.000000
C121  C     C_R   0.233849 0.613540 0.614253 0.000000
C122  C     C_R   0.202796 0.607223 0.558688 0.000000
C123  C     C_R   0.146685 0.614259 0.548511 0.000000
C124  C     C_R   0.127672 0.640926 0.586307 0.000000
C125  C     C_R   0.165871 0.662815 0.631795 0.000000
C126  C     C_R   0.216953 0.643024 0.648608 0.000000
N42   N     N_R   0.248945 0.637418 0.704178 0.000000
H131  H     H_    0.401158 0.467875 0.798772 0.000000
H132  H     H_    0.378066 0.510947 0.840822 0.000000
H133  H     H_    0.330166 0.447602 0.815223 0.000000
H134  H     H_    0.317808 0.496078 0.718026 0.000000
H135  H     H_    0.268873 0.523088 0.765675 0.000000
H136  H     H_    0.324829 0.579549 0.795564 0.000000
H137  H     H_    0.219458 0.595667 0.524467 0.000000
H138  H     H_    0.119090 0.605263 0.507213 0.000000
H139  H     H_    0.084860 0.650838 0.576304 0.000000
H140  H     H_    0.152248 0.689038 0.656319 0.000000
C127  C     C_3   0.184663 0.436546 0.736454 0.000000
N43   N     N_3   0.141923 0.463659 0.750611 0.000000
C128  C     C_3   0.144207 0.522617 0.716057 0.000000
C129  C     C_R   0.113650 0.556320 0.741860 0.000000
N44   N     N_R   0.056629 0.538704 0.746059 0.000000
C130  C     C_R   0.041949 0.590006 0.746606 0.000000
C131  C     C_R   0.990073 0.600372 0.746633 0.000000
C132  C     C_R   0.984007 0.657354 0.742872 0.000000
C133  C     C_R   0.027868 0.703637 0.733003 0.000000
C134  C     C_R   0.079827 0.691783 0.731697 0.000000
C135  C     C_R   0.086774 0.634623 0.744396 0.000000
N45   N     N_R   0.134278 0.614869 0.745884 0.000000
H141  H     H_    0.165530 0.391617 0.728887 0.000000
H142  H     H_    0.200675 0.462849 0.695131 0.000000
H143  H     H_    0.219949 0.431719 0.775712 0.000000
H144  H     H_    0.153590 0.468566 0.795720 0.000000
H145  H     H_    0.187666 0.543441 0.719143 0.000000
H146  H     H_    0.127852 0.523212 0.667346 0.000000
H147  H     H_    0.955045 0.565736 0.747437 0.000000
H148  H     H_    0.942881 0.665264 0.740762 0.000000
H149  H     H_    0.021857 0.748786 0.725055 0.000000
H150  H     H_    0.112058 0.725595 0.716264 0.000000
C136  C     C_3   0.372509 0.820172 0.840380 0.000000
N46   N     N_3   0.317121 0.782197 0.841151 0.000000
C137  C     C_3   0.327812 0.723264 0.870421 0.000000
C138  C     C_R   0.275683 0.682709 0.888603 0.000000
N47   N     N_R   0.285996 0.647424 0.945957 0.000000
C139  C     C_R   0.280931 0.594635 0.933794 0.000000
C140  C     C_R   0.306387 0.549088 0.969910 0.000000
C141  C     C_R   0.305658 0.501462 0.944162 0.000000
C142  C     C_R   0.272706 0.498280 0.887227 0.000000
C143  C     C_R   0.244190 0.544632 0.855067 0.000000
C144  C     C_R   0.255629 0.595012 0.875867 0.000000
N48   N     N_R   0.248246 0.650027 0.845349 0.000000
H151  H     H_    0.394950 0.822642 0.887496 0.000000
H152  H     H_    0.399181 0.802292 0.817634 0.000000
H153  H     H_    0.366480 0.865393 0.815775 0.000000
H154  H     H_    0.298467 0.780424 0.796170 0.000000
H155  H     H_    0.343176 0.704231 0.838001 0.000000
H156  H     H_    0.361573 0.724658 0.911367 0.000000
H157  H     H_    0.329868 0.552770 0.014712 0.000000
H158  H     H_    0.326704 0.465010 0.969880 0.000000
H159  H     H_    0.265625 0.457811 0.870301 0.000000
H160  H     H_    0.215259 0.543469 0.814030 0.000000
C145  C     C_3   0.046329 0.989549 0.504419 0.000000
N49   N     N_3   0.103896 0.010444 0.532321 0.000000
C146  C     C_3   0.108523 0.071574 0.536793 0.000000
C147  C     C_R   0.154375 0.082915 0.586333 0.000000
N50   N     N_R   0.143550 0.057706 0.643470 0.000000
C148  C     C_R   0.195833 0.067415 0.677508 0.000000
C149  C     C_R   0.213113 0.041573 0.736927 0.000000
C150  C     C_R   0.269750 0.054695 0.763000 0.000000
C151  C     C_R   0.308617 0.090750 0.728575 0.000000
C152  C     C_R   0.291403 0.113058 0.667524 0.000000
C153  C     C_R   0.234458 0.101589 0.642404 0.000000
N51   N     N_R   0.209076 0.115308 0.583076 0.000000
H161  H     H_    0.047171 0.976556 0.461731 0.000000
H162  H     H_    0.028573 0.950133 0.534966 0.000000
H163  H     H_    0.018745 0.023690 0.493371 0.000000
H164  H     H_    0.132125 0.007245 0.505412 0.000000
H165  H     H_    0.114192 0.102681 0.494772 0.000000
H166  H     H_    0.071003 0.076385 0.553215 0.000000
H167  H     H_    0.184962 0.007788 0.761143 0.000000
H168  H     H_    0.284284 0.034676 0.809713 0.000000
H169  H     H_    0.353248 0.098896 0.748709 0.000000
H170  H     H_    0.323003 0.135569 0.639816 0.000000
C154  C     C_3   0.111356 0.016109 0.368607 0.000000
N52   N     N_3   0.094732 0.069428 0.372125 0.000000
C155  C     C_3   0.147399 0.103403 0.390515 0.000000
C156  C     C_R   0.138239 0.159172 0.395430 0.000000
N53   N     N_R   0.105578 0.191044 0.345953 0.000000
C157  C     C_R   0.139692 0.244485 0.343262 0.000000
C158  C     C_R   0.138230 0.291198 0.295460 0.000000
C159  C     C_R   0.186909 0.332098 0.289768 0.000000
C160  C     C_R   0.233282 0.331041 0.336192 0.000000
C161  C     C_R   0.231520 0.288817 0.388998 0.000000
C162  C     C_R   0.185916 0.244097 0.390115 0.000000
N54   N     N_R   0.184885 0.190975 0.427175 0.000000
H171  H     H_    0.073898 0.982320 0.368657 0.000000
H172  H     H_    0.130276 0.024048 0.327002 0.000000
H173  H     H_    0.141636 0.000968 0.409315 0.000000
H174  H     H_    0.073822 0.061146 0.408458 0.000000
H175  H     H_    0.167483 0.083360 0.435940 0.000000
H176  H     H_    0.173704 0.110575 0.355022 0.000000
H177  H     H_    0.100818 0.295808 0.262302 0.000000
H178  H     H_    0.189106 0.364620 0.248562 0.000000
H179  H     H_    0.270793 0.362995 0.329653 0.000000
H180  H     H_    0.266786 0.287743 0.425897 0.000000
C163  C     C_3   0.420506 0.201991 0.381453 0.000000
N55   N     N_3   0.400787 0.205374 0.436002 0.000000
C164  C     C_3   0.379145 0.260632 0.424946 0.000000
C165  C     C_R   0.372408 0.272505 0.483748 0.000000
N56   N     N_R   0.329911 0.238205 0.517825 0.000000
C166  C     C_R   0.347257 0.261645 0.569034 0.000000
C167  C     C_R   0.324626 0.246532 0.621601 0.000000
C168  C     C_R   0.356741 0.264551 0.673483 0.000000
C169  C     C_R   0.408365 0.301866 0.671203 0.000000
C170  C     C_R   0.426797 0.323097 0.616136 0.000000
C171  C     C_R   0.395493 0.304112 0.565701 0.000000
N57   N     N_R   0.411991 0.316428 0.511158 0.000000
H181  H     H_    0.429159 0.156731 0.385446 0.000000
H182  H     H_    0.387304 0.211852 0.340789 0.000000
H183  H     H_    0.460418 0.234004 0.376427 0.000000
H184  H     H_    0.436254 0.207069 0.470921 0.000000
H185  H     H_    0.410171 0.297176 0.405356 0.000000
H186  H     H_    0.338354 0.259009 0.392525 0.000000
H187  H     H_    0.284397 0.218944 0.624711 0.000000
H188  H     H_    0.342255 0.247538 0.716496 0.000000
H189  H     H_    0.434034 0.314170 0.712524 0.000000
H190  H     H_    0.467195 0.350043 0.611954 0.000000
C172  C     C_3   0.219109 0.738947 0.134527 0.000000
N58   N     N_3   0.186111 0.786748 0.111843 0.000000
C173  C     C_3   0.149042 0.776490 0.056107 0.000000
C174  C     C_R   0.096521 0.801448 0.045828 0.000000
N59   N     N_R   0.071302 0.803462 0.093001 0.000000
C175  C     C_R   0.025916 0.829949 0.062311 0.000000
C176  C     C_R   0.973521 0.819920 0.077745 0.000000
C177  C     C_R   0.929789 0.846175 0.038907 0.000000
C178  C     C_R   0.937229 0.876049 0.981024 0.000000
C179  C     C_R   0.985297 0.872121 0.960497 0.000000
C180  C     C_R   0.027130 0.846122 0.001794 0.000000
N60   N     N_R   0.066523 0.821946 0.988696 0.000000
H191  H     H_    0.262238 0.756705 0.156844 0.000000
H192  H     H_    0.199687 0.705824 0.168941 0.000000
H193  H     H_    0.220531 0.715858 0.098209 0.000000
H194  H     H_    0.215436 0.824282 0.098722 0.000000
H195  H     H_    0.172912 0.800845 0.020437 0.000000
H196  H     H_    0.135976 0.729213 0.058352 0.000000
H197  H     H_    0.965489 0.786754 0.116542 0.000000
H198  H     H_    0.888547 0.839710 0.052177 0.000000
H199  H     H_    0.902613 0.894814 0.949748 0.000000
H200  H     H_    0.988103 0.885815 0.912942 0.000000
C181  C     C_3   0.864411 0.750968 0.201061 0.000000
N61   N     N_3   0.885602 0.700251 0.194003 0.000000
C182  C     C_3   0.943774 0.702568 0.224761 0.000000
C183  C     C_R   0.973370 0.663114 0.204380 0.000000
N62   N     N_R   0.947806 0.607652 0.192419 0.000000
C184  C     C_R   0.989372 0.590571 0.174779 0.000000
C185  C     C_R   0.987671 0.537575 0.160164 0.000000
C186  C     C_R   0.033747 0.530856 0.138448 0.000000
C187  C     C_R   0.077277 0.578534 0.128642 0.000000
C188  C     C_R   0.078550 0.630561 0.145483 0.000000
C189  C     C_R   0.035244 0.634369 0.171319 0.000000
N63   N     N_R   0.027437 0.681696 0.189136 0.000000
H201  H     H_    0.820212 0.736962 0.209756 0.000000
H202  H     H_    0.891647 0.770157 0.239259 0.000000
H203  H     H_    0.863684 0.784403 0.158233 0.000000
H204  H     H_    0.887617 0.707380 0.148433 0.000000
H205  H     H_    0.964521 0.746800 0.210867 0.000000
H206  H     H_    0.946280 0.692835 0.274680 0.000000
H207  H     H_    0.950981 0.503081 0.163108 0.000000
H208  H     H_    0.031301 0.490987 0.121916 0.000000
H209  H     H_    0.107877 0.578451 0.102505 0.000000
H210  H     H_    0.111197 0.667499 0.136635 0.000000
C190  C     C_3   0.666462 0.752106 0.408009 0.000000
N64   N     N_3   0.668936 0.728952 0.355311 0.000000
C191  C     C_3   0.633763 0.670682 0.353545 0.000000
C192  C     C_R   0.625910 0.657984 0.292060 0.000000
N65   N     N_R   0.574651 0.647719 0.251243 0.000000
C193  C     C_R   0.592488 0.666472 0.197413 0.000000
C194  C     C_R   0.558506 0.675871 0.141144 0.000000
C195  C     C_R   0.584406 0.705670 0.092056 0.000000
C196  C     C_R   0.642680 0.726826 0.100459 0.000000
C197  C     C_R   0.676203 0.717594 0.157809 0.000000
C198  C     C_R   0.650537 0.685248 0.205947 0.000000
N66   N     N_R   0.673479 0.675751 0.266225 0.000000
H211  H     H_    0.708457 0.759502 0.436257 0.000000
H212  H     H_    0.656206 0.796762 0.392225 0.000000
H213  H     H_    0.635660 0.723401 0.435432 0.000000
H214  H     H_    0.711441 0.725752 0.359347 0.000000
H215  H     H_    0.659613 0.639291 0.380862 0.000000
H216  H     H_    0.593587 0.664991 0.369871 0.000000
H217  H     H_    0.512883 0.661845 0.135508 0.000000
H218  H     H_    0.558882 0.713980 0.047084 0.000000
H219  H     H_    0.661920 0.751304 0.061787 0.000000
H220  H     H_    0.721377 0.734361 0.163839 0.000000
C199  C     C_3   0.768498 0.462174 0.338894 0.000000
N67   N     N_3   0.772618 0.490867 0.388443 0.000000
C200  C     C_3   0.729629 0.527503 0.373819 0.000000
C201  C     C_R   0.739012 0.559648 0.423062 0.000000
N68   N     N_R   0.742491 0.533313 0.484587 0.000000
C202  C     C_R   0.753291 0.581153 0.509986 0.000000
C203  C     C_R   0.753459 0.581702 0.569475 0.000000
C204  C     C_R   0.764807 0.636045 0.586279 0.000000
C205  C     C_R   0.777781 0.687584 0.544354 0.000000
C206  C     C_R   0.775492 0.685781 0.484035 0.000000
C207  C     C_R   0.760991 0.632120 0.467368 0.000000
N69   N     N_R   0.751553 0.620473 0.410778 0.000000
H221  H     H_    0.723910 0.446347 0.320459 0.000000
H222  H     H_    0.789251 0.492788 0.303365 0.000000
H223  H     H_    0.790792 0.424796 0.357548 0.000000
H224  H     H_    0.812145 0.518000 0.392219 0.000000
H225  H     H_    0.733162 0.558576 0.332101 0.000000
H226  H     H_    0.686434 0.503755 0.363414 0.000000
H227  H     H_    0.744981 0.541175 0.602050 0.000000
H228  H     H_    0.766640 0.637540 0.633288 0.000000
H229  H     H_    0.791549 0.729177 0.559234 0.000000
H230  H     H_    0.784778 0.725309 0.450999 0.000000
C208  C     C_3   0.636079 0.541200 0.173888 0.000000
N70   N     N_3   0.682791 0.556984 0.221753 0.000000
C209  C     C_3   0.729176 0.591541 0.192025 0.000000
C210  C     C_R   0.783108 0.605911 0.235781 0.000000
N71   N     N_R   0.791224 0.634194 0.283946 0.000000
C211  C     C_R   0.841452 0.621533 0.315724 0.000000
C212  C     C_R   0.866499 0.627067 0.373369 0.000000
C213  C     C_R   0.920400 0.612742 0.393928 0.000000
C214  C     C_R   0.944635 0.587911 0.359885 0.000000
C215  C     C_R   0.913692 0.574364 0.307316 0.000000
C216  C     C_R   0.863822 0.593014 0.286093 0.000000
N72   N     N_R   0.830336 0.584804 0.234477 0.000000
H231  H     H_    0.599124 0.516966 0.194786 0.000000
H232  H     H_    0.624063 0.581273 0.141599 0.000000
H233  H     H_    0.648462 0.512076 0.148868 0.000000
H234  H     H_    0.695849 0.517333 0.244668 0.000000
H235  H     H_    0.738562 0.565574 0.162132 0.000000
H236  H     H_    0.715684 0.630815 0.162217 0.000000
H237  H     H_    0.847196 0.645024 0.400558 0.000000
H238  H     H_    0.945137 0.620717 0.436312 0.000000
H239  H     H_    0.986147 0.575700 0.375876 0.000000
H240  H     H_    0.928658 0.551301 0.282071 0.000000
C217  C     C_3   0.151156 0.488995 0.428548 0.000000
N73   N     N_3   0.176766 0.449429 0.480773 0.000000
C218  C     C_3   0.195001 0.479153 0.531829 0.000000
C219  C     C_R   0.216601 0.439213 0.587159 0.000000
N74   N     N_R   0.187582 0.382600 0.611128 0.000000
C220  C     C_R   0.229399 0.364209 0.656402 0.000000
C221  C     C_R   0.223789 0.313709 0.700246 0.000000
C222  C     C_R   0.268772 0.305041 0.747767 0.000000
C223  C     C_R   0.319109 0.345440 0.749620 0.000000
C224  C     C_R   0.324780 0.395704 0.704798 0.000000
C225  C     C_R   0.278579 0.406372 0.659692 0.000000
N75   N     N_R   0.271822 0.456892 0.617753 0.000000
H241  H     H_    0.155876 0.475706 0.386758 0.000000
H242  H     H_    0.105017 0.484577 0.428823 0.000000
H243  H     H_    0.172208 0.535371 0.429178 0.000000
H244  H     H_    0.212398 0.438588 0.470080 0.000000
H245  H     H_    0.231749 0.512710 0.523565 0.000000
H246  H     H_    0.162189 0.500835 0.538401 0.000000
H247  H     H_    0.184646 0.282552 0.699209 0.000000
H248  H     H_    0.264982 0.266098 0.783326 0.000000
H249  H     H_    0.354382 0.337592 0.786531 0.000000
H250  H     H_    0.363910 0.426603 0.707737 0.000000
C226  C     C_3   0.388495 0.459853 0.548229 0.000000
N76   N     N_3   0.398036 0.491333 0.597305 0.000000
C227  C     C_3   0.440045 0.544247 0.586588 0.000000
C228  C     C_R   0.456671 0.566229 0.643612 0.000000
N77   N     N_R   0.411878 0.573390 0.666486 0.000000
C229  C     C_R   0.440662 0.598050 0.716078 0.000000
C230  C     C_R   0.422690 0.627473 0.752576 0.000000
C231  C     C_R   0.459977 0.645271 0.802177 0.000000
C232  C     C_R   0.516281 0.637922 0.813222 0.000000
C233  C     C_R   0.536377 0.617566 0.771340 0.000000
C234  C     C_R   0.498013 0.599388 0.723431 0.000000
N78   N     N_R   0.510885 0.582800 0.677113 0.000000
H251  H     H_    0.345470 0.432388 0.545181 0.000000
H252  H     H_    0.392923 0.491748 0.505822 0.000000
H253  H     H_    0.420132 0.430739 0.556798 0.000000
H254  H     H_    0.414204 0.464353 0.636734 0.000000
H255  H     H_    0.474204 0.539350 0.565860 0.000000
H256  H     H_    0.417731 0.577060 0.554577 0.000000
H257  H     H_    0.383015 0.642767 0.740953 0.000000
H258  H     H_    0.445299 0.666899 0.831424 0.000000
H259  H     H_    0.544770 0.651569 0.852450 0.000000
H260  H     H_    0.580811 0.615588 0.775783 0.000000
C235  C     C_3   0.847117 0.238247 0.105356 0.000000
N79   N     N_3   0.907675 0.235799 0.114653 0.000000
C236  C     C_3   0.940745 0.287489 0.137650 0.000000
C237  C     C_R   0.002213 0.285088 0.146288 0.000000
N80   N     N_R   0.029898 0.240819 0.188882 0.000000
C238  C     C_R   0.081521 0.254498 0.171595 0.000000
C239  C     C_R   0.127715 0.225992 0.197245 0.000000
C240  C     C_R   0.179632 0.250324 0.179397 0.000000
C241  C     C_R   0.185447 0.304161 0.139558 0.000000
C242  C     C_R   0.138904 0.332469 0.115385 0.000000
C243  C     C_R   0.086368 0.305875 0.128746 0.000000
N81   N     N_R   0.036265 0.326895 0.108338 0.000000
H261  H     H_    0.823482 0.210907 0.071561 0.000000
H262  H     H_    0.830689 0.221204 0.148379 0.000000
H263  H     H_    0.839553 0.283848 0.089092 0.000000
H264  H     H_    0.918274 0.236379 0.072684 0.000000
H265  H     H_    0.933045 0.328452 0.105355 0.000000
H266  H     H_    0.928657 0.291725 0.179025 0.000000
H267  H     H_    0.124354 0.186792 0.232428 0.000000
H268  H     H_    0.216484 0.229089 0.199376 0.000000
H269  H     H_    0.226936 0.325074 0.128710 0.000000
H270  H     H_    0.144332 0.375895 0.089857 0.000000
C244  C     C_3   0.035610 0.194874 0.480310 0.000000
N82   N     N_3   0.993098 0.192741 0.425711 0.000000
C245  C     C_3   0.978031 0.131844 0.419599 0.000000
C246  C     C_R   0.936053 0.126800 0.364245 0.000000
N83   N     N_R   0.880088 0.096556 0.363694 0.000000
C247  C     C_R   0.860580 0.103654 0.302191 0.000000
C248  C     C_R   0.806213 0.090116 0.270490 0.000000
C249  C     C_R   0.799351 0.092355 0.208450 0.000000
C250  C     C_R   0.846353 0.106641 0.179557 0.000000
C251  C     C_R   0.899216 0.127990 0.210216 0.000000
C252  C     C_R   0.903822 0.130384 0.270296 0.000000
N84   N     N_R   0.951810 0.147557 0.307757 0.000000
H271  H     H_    0.023822 0.220005 0.509458 0.000000
H272  H     H_    0.036231 0.150646 0.507480 0.000000
H273  H     H_    0.078015 0.213927 0.467830 0.000000
H274  H     H_    0.014141 0.213362 0.389404 0.000000
H275  H     H_    0.016916 0.116428 0.417274 0.000000
H276  H     H_    0.958278 0.105056 0.456598 0.000000
H277  H     H_    0.769534 0.078474 0.292929 0.000000
H278  H     H_    0.757333 0.080278 0.182889 0.000000
H279  H     H_    0.840988 0.104649 0.131918 0.000000
H280  H     H_    0.935947 0.141483 0.187847 0.000000
C253  C     C_3   0.884234 0.947681 0.758735 0.000000
N85   N     N_3   0.946070 0.963084 0.770710 0.000000
C254  C     C_3   0.969745 0.911007 0.772184 0.000000
C255  C     C_R   0.033435 0.924819 0.782946 0.000000
N86   N     N_R   0.060082 0.982523 0.759798 0.000000
C256  C     C_R   0.096228 0.994901 0.810588 0.000000
C257  C     C_R   0.127129 0.049172 0.819151 0.000000
C258  C     C_R   0.160401 0.053420 0.875558 0.000000
C259  C     C_R   0.161721 0.004233 0.922372 0.000000
C260  C     C_R   0.129463 0.950177 0.913682 0.000000
C261  C     C_R   0.096820 0.946178 0.857186 0.000000
N87   N     N_R   0.061016 0.898232 0.840107 0.000000
H281  H     H_    0.865200 0.985222 0.762704 0.000000
H282  H     H_    0.869678 0.938469 0.711961 0.000000
H283  H     H_    0.869938 0.908303 0.792404 0.000000
H284  H     H_    0.957699 0.973033 0.814328 0.000000
H285  H     H_    0.957052 0.876645 0.811007 0.000000
H286  H     H_    0.951732 0.894050 0.730496 0.000000
H287  H     H_    0.126388 0.087446 0.782935 0.000000
H288  H     H_    0.185656 0.095395 0.883196 0.000000
H289  H     H_    0.188139 0.008202 0.966144 0.000000
H290  H     H_    0.131439 0.912384 0.950207 0.000000
C262  C     C_3   0.883276 0.072658 0.643756 0.000000
N88   N     N_3   0.892402 0.126486 0.597884 0.000000
C263  C     C_3   0.939284 0.129109 0.566487 0.000000
C264  C     C_R   0.944311 0.069248 0.560812 0.000000
N89   N     N_R   0.984476 0.037262 0.601306 0.000000
C265  C     C_R   0.959693 0.982525 0.594370 0.000000
C266  C     C_R   0.978186 0.932570 0.626825 0.000000
C267  C     C_R   0.942781 0.880457 0.620312 0.000000
C268  C     C_R   0.891181 0.878788 0.579836 0.000000
C269  C     C_R   0.874969 0.929907 0.543491 0.000000
C270  C     C_R   0.910520 0.981643 0.551241 0.000000
N90   N     N_R   0.900847 0.036477 0.524675 0.000000
H291  H     H_    0.923510 0.058427 0.668713 0.000000
H292  H     H_    0.860410 0.081174 0.677069 0.000000
H293  H     H_    0.856094 0.036168 0.622726 0.000000
H294  H     H_    0.900455 0.163039 0.618456 0.000000
H295  H     H_    0.930448 0.156875 0.520637 0.000000
H296  H     H_    0.979442 0.149459 0.591431 0.000000
H297  H     H_    0.018383 0.933861 0.657597 0.000000
H298  H     H_    0.957045 0.840621 0.646694 0.000000
H299  H     H_    0.864544 0.836799 0.575122 0.000000
H300  H     H_    0.835425 0.928955 0.511425 0.000000
C271  C     C_3   0.197405 0.265566 0.540935 0.000000
N91   N     N_3   0.160417 0.261485 0.584314 0.000000
C272  C     C_3   0.146295 0.200078 0.610990 0.000000
C273  C     C_R   0.101474 0.190342 0.647966 0.000000
N92   N     N_R   0.077859 0.236640 0.652387 0.000000
C274  C     C_R   0.035104 0.206811 0.683876 0.000000
C275  C     C_R   0.986826 0.223358 0.690281 0.000000
C276  C     C_R   0.950704 0.186201 0.727413 0.000000
C277  C     C_R   0.960753 0.129972 0.754250 0.000000
C278  C     C_R   0.003849 0.110014 0.738866 0.000000
C279  C     C_R   0.038371 0.148883 0.702335 0.000000
N93   N     N_R   0.075979 0.135279 0.676354 0.000000
H301  H     H_    0.171794 0.266676 0.495112 0.000000
H302  H     H_    0.230310 0.305861 0.541672 0.000000
H303  H     H_    0.216901 0.225944 0.550125 0.000000
H304  H     H_    0.122395 0.271566 0.557787 0.000000
H305  H     H_    0.127997 0.177879 0.572648 0.000000
H306  H     H_    0.184497 0.186004 0.641621 0.000000
H307  H     H_    0.979450 0.266201 0.672806 0.000000
H308  H     H_    0.914794 0.201562 0.735812 0.000000
H309  H     H_    0.932682 0.100703 0.783131 0.000000
H310  H     H_    0.009459 0.064949 0.754400 0.000000
C280  C     C_3   0.662309 0.986655 0.583729 0.000000
N94   N     N_3   0.665965 0.986370 0.521200 0.000000
C281  C     C_3   0.704133 0.945756 0.523140 0.000000
C282  C     C_R   0.709516 0.943366 0.460254 0.000000
N95   N     N_R   0.669283 0.903839 0.426861 0.000000
C283  C     C_R   0.689716 0.918488 0.374741 0.000000
C284  C     C_R   0.661443 0.903793 0.320925 0.000000
C285  C     C_R   0.687386 0.925690 0.270617 0.000000
C286  C     C_R   0.742573 0.956353 0.277235 0.000000
C287  C     C_R   0.771159 0.968705 0.332870 0.000000
C288  C     C_R   0.740793 0.957136 0.378587 0.000000
N96   N     N_R   0.755370 0.978152 0.431022 0.000000
H311  H     H_    0.641279 0.023879 0.584629 0.000000
H312  H     H_    0.637447 0.944430 0.603475 0.000000
H313  H     H_    0.705336 0.990675 0.612069 0.000000
H314  H     H_    0.681983 0.028633 0.499704 0.000000
H315  H     H_    0.746884 0.957812 0.549804 0.000000
H316  H     H_    0.685139 0.901863 0.545810 0.000000
H317  H     H_    0.618453 0.880342 0.318185 0.000000
H318  H     H_    0.665266 0.918807 0.226126 0.000000
H319  H     H_    0.762263 0.974094 0.237849 0.000000
H320  H     H_    0.814570 0.990508 0.338794 0.000000
C289  C     C_3   0.569699 0.853611 0.167460 0.000000
N97   N     N_3   0.557436 0.841234 0.229063 0.000000
C290  C     C_3   0.577023 0.786419 0.260926 0.000000
C291  C     C_R   0.544431 0.754328 0.311753 0.000000
N98   N     N_R   0.553590 0.770171 0.369070 0.000000
C292  C     C_R   0.516670 0.726549 0.396482 0.000000
C293  C     C_R   0.502601 0.719953 0.451984 0.000000
C294  C     C_R   0.470968 0.668002 0.475138 0.000000
C295  C     C_R   0.449531 0.625551 0.440237 0.000000
C296  C     C_R   0.455262 0.638410 0.380371 0.000000
C297  C     C_R   0.490217 0.687544 0.361067 0.000000
N99   N     N_R   0.506644 0.701015 0.307855 0.000000
H321  H     H_    0.565785 0.900187 0.146203 0.000000
H322  H     H_    0.613556 0.846508 0.168586 0.000000
H323  H     H_    0.539068 0.824224 0.139574 0.000000
H324  H     H_    0.513618 0.834505 0.225417 0.000000
H325  H     H_    0.570583 0.757899 0.227560 0.000000
H326  H     H_    0.623066 0.796879 0.277357 0.000000
H327  H     H_    0.514168 0.754419 0.476814 0.000000
H328  H     H_    0.461875 0.662024 0.519844 0.000000
H329  H     H_    0.424034 0.585326 0.457911 0.000000
H330  H     H_    0.432098 0.613557 0.347403 0.000000
C298  C     C_3   0.596719 0.804714 0.656748 0.000000
N100  N     N_3   0.575351 0.742295 0.657972 0.000000
C299  C     C_3   0.543614 0.732579 0.598273 0.000000
C300  C     C_R   0.583179 0.715767 0.567239 0.000000
N101  N     N_R   0.617114 0.678892 0.608172 0.000000
C301  C     C_R   0.668914 0.711665 0.603716 0.000000
C302  C     C_R   0.712280 0.716649 0.652044 0.000000
C303  C     C_R   0.749376 0.769780 0.650911 0.000000
C304  C     C_R   0.750699 0.810731 0.597392 0.000000
C305  C     C_R   0.711373 0.801165 0.546280 0.000000
C306  C     C_R   0.666208 0.756876 0.553732 0.000000
N102  N     N_R   0.611931 0.760171 0.526086 0.000000
H331  H     H_    0.612448 0.825907 0.613644 0.000000
H332  H     H_    0.562404 0.826148 0.662710 0.000000
H333  H     H_    0.632695 0.809570 0.695236 0.000000
H334  H     H_    0.548633 0.728048 0.690208 0.000000
H335  H     H_    0.510990 0.693495 0.606141 0.000000
H336  H     H_    0.525115 0.771764 0.572497 0.000000
H337  H     H_    0.713504 0.683055 0.692151 0.000000
H338  H     H_    0.777939 0.779453 0.691700 0.000000
H339  H     H_    0.780559 0.851457 0.596427 0.000000
H340  H     H_    0.712261 0.832105 0.504613 0.000000
C307  C     C_3   0.883941 0.487540 0.807509 0.000000
N103  N     N_3   0.939592 0.471763 0.816671 0.000000
C308  C     C_3   0.940764 0.421944 0.865791 0.000000
C309  C     C_R   0.000082 0.415249 0.888591 0.000000
N104  N     N_R   0.029896 0.413238 0.845629 0.000000
C310  C     C_R   0.071217 0.381196 0.880723 0.000000
C311  C     C_R   0.118377 0.365349 0.867895 0.000000
C312  C     C_R   0.149191 0.326670 0.910866 0.000000
C313  C     C_R   0.130484 0.299568 0.964798 0.000000
C314  C     C_R   0.085058 0.317120 0.978400 0.000000
C315  C     C_R   0.061185 0.361945 0.938332 0.000000
N105  N     N_R   0.021067 0.387632 0.947025 0.000000
H341  H     H_    0.870709 0.509524 0.760424 0.000000
H342  H     H_    0.853371 0.446314 0.816037 0.000000
H343  H     H_    0.885368 0.519231 0.836798 0.000000
H344  H     H_    0.968946 0.505445 0.833778 0.000000
H345  H     H_    0.920847 0.430636 0.897769 0.000000
H346  H     H_    0.916086 0.381071 0.851890 0.000000
H347  H     H_    0.130315 0.377991 0.824810 0.000000
H348  H     H_    0.185329 0.313835 0.899792 0.000000
H349  H     H_    0.151492 0.265508 0.996096 0.000000
H350  H     H_    0.067388 0.294923 0.018192 0.000000
C316  C     C_3   0.082249 0.237609 0.826880 0.000000
N106  N     N_3   0.093828 0.290552 0.780877 0.000000
C317  C     C_3   0.042967 0.318353 0.759308 0.000000
C318  C     C_R   0.048350 0.368612 0.706425 0.000000
N107  N     N_R   0.028820 0.419012 0.704100 0.000000
C319  C     C_R   0.033635 0.450293 0.648898 0.000000
C320  C     C_R   0.018643 0.504256 0.623833 0.000000
C321  C     C_R   0.031540 0.530559 0.567459 0.000000
C322  C     C_R   0.056773 0.501110 0.537409 0.000000
C323  C     C_R   0.069291 0.445900 0.563310 0.000000
C324  C     C_R   0.058903 0.422595 0.620433 0.000000
N108  N     N_R   0.068732 0.370355 0.654667 0.000000
H351  H     H_    0.123195 0.225666 0.854040 0.000000
H352  H     H_    0.055998 0.245397 0.857459 0.000000
H353  H     H_    0.059654 0.200037 0.805591 0.000000
H354  H     H_    0.107198 0.279911 0.745312 0.000000
H355  H     H_    0.003009 0.287807 0.758623 0.000000
H356  H     H_    0.033775 0.336583 0.793869 0.000000
H357  H     H_    0.000258 0.526487 0.648493 0.000000
H358  H     H_    0.020891 0.573582 0.545936 0.000000
H359  H     H_    0.065883 0.521035 0.492483 0.000000
H360  H     H_    0.089694 0.424181 0.539968 0.000000
C325  C     C_3   0.897307 0.643760 0.629118 0.000000
N109  N     N_3   0.882258 0.584919 0.664210 0.000000
C326  C     C_3   0.884043 0.545818 0.625021 0.000000
C327  C     C_R   0.870731 0.481631 0.652639 0.000000
N110  N     N_R   0.909234 0.451653 0.699687 0.000000
C328  C     C_R   0.877560 0.397140 0.707820 0.000000
C329  C     C_R   0.893441 0.348013 0.748101 0.000000
C330  C     C_R   0.854502 0.296031 0.751894 0.000000
C331  C     C_R   0.803861 0.292012 0.710298 0.000000
C332  C     C_R   0.792002 0.339972 0.664704 0.000000
C333  C     C_R   0.826500 0.393602 0.667313 0.000000
N111  N     N_R   0.819576 0.445914 0.629501 0.000000
H361  H     H_    0.886942 0.677658 0.648724 0.000000
H362  H     H_    0.943364 0.652565 0.626646 0.000000
H363  H     H_    0.873026 0.647471 0.582829 0.000000
H364  H     H_    0.840619 0.579429 0.671823 0.000000
H365  H     H_    0.851497 0.556175 0.586398 0.000000
H366  H     H_    0.924693 0.557312 0.608701 0.000000
H367  H     H_    0.935046 0.349772 0.776315 0.000000
H368  H     H_    0.865131 0.257353 0.784926 0.000000
H369  H     H_    0.775818 0.249936 0.710499 0.000000
H370  H     H_    0.757599 0.334746 0.626983 0.000000
C334  C     C_3   0.348241 0.413338 0.415711 0.000000
N112  N     N_3   0.362235 0.447207 0.357930 0.000000
C335  C     C_3   0.393115 0.504977 0.366763 0.000000
C336  C     C_R   0.454334 0.505647 0.371715 0.000000
N113  N     N_R   0.468346 0.449051 0.393165 0.000000
C337  C     C_R   0.484339 0.441184 0.342960 0.000000
C338  C     C_R   0.486557 0.388453 0.328640 0.000000
C339  C     C_R   0.495372 0.389136 0.270638 0.000000
C340  C     C_R   0.504596 0.442127 0.229617 0.000000
C341  C     C_R   0.502628 0.495235 0.244775 0.000000
C342  C     C_R   0.490868 0.493431 0.301074 0.000000
N114  N     N_R   0.476704 0.537892 0.319682 0.000000
H371  H     H_    0.337098 0.366658 0.412412 0.000000
H372  H     H_    0.385821 0.417335 0.451866 0.000000
H373  H     H_    0.311647 0.427290 0.426838 0.000000
H374  H     H_    0.324211 0.453839 0.328082 0.000000
H375  H     H_    0.378683 0.536319 0.325096 0.000000
H376  H     H_    0.385705 0.515075 0.408119 0.000000
H377  H     H_    0.481377 0.347649 0.361147 0.000000
H378  H     H_    0.496748 0.348143 0.257777 0.000000
H379  H     H_    0.512417 0.441679 0.185007 0.000000
H380  H     H_    0.507110 0.536324 0.212136 0.000000
C343  C     C_3   0.499024 0.442871 0.762886 0.000000
N115  N     N_3   0.545085 0.451446 0.728887 0.000000
C344  C     C_3   0.523908 0.425271 0.674965 0.000000
C345  C     C_R   0.538515 0.467466 0.618301 0.000000
N116  N     N_R   0.573099 0.522431 0.621752 0.000000
C346  C     C_R   0.582447 0.540810 0.565842 0.000000
C347  C     C_R   0.621733 0.586766 0.547804 0.000000
C348  C     C_R   0.626419 0.600108 0.488162 0.000000
C349  C     C_R   0.595976 0.562367 0.450211 0.000000
C350  C     C_R   0.560458 0.514296 0.472305 0.000000
C351  C     C_R   0.552788 0.503882 0.529432 0.000000
N117  N     N_R   0.522915 0.455183 0.558557 0.000000
H381  H     H_    0.515705 0.460671 0.805277 0.000000
H382  H     H_    0.464694 0.466921 0.735771 0.000000
H383  H     H_    0.482183 0.395058 0.775409 0.000000
H384  H     H_    0.573845 0.425357 0.757049 0.000000
H385  H     H_    0.543724 0.385532 0.681046 0.000000
H386  H     H_    0.477776 0.412208 0.671153 0.000000
H387  H     H_    0.652743 0.606514 0.580879 0.000000
H388  H     H_    0.658133 0.636291 0.474607 0.000000
H389  H     H_    0.602559 0.564156 0.404977 0.000000
H390  H     H_    0.547106 0.481212 0.448510 0.000000
C352  C     C_3   0.620782 0.387076 0.350250 0.000000
N118  N     N_3   0.648419 0.392951 0.411855 0.000000
C353  C     C_3   0.619553 0.427833 0.434816 0.000000
C354  C     C_R   0.615491 0.401949 0.498071 0.000000
N119  N     N_R   0.565043 0.368146 0.512312 0.000000
C355  C     C_R   0.582181 0.341136 0.569664 0.000000
C356  C     C_R   0.550761 0.296396 0.604568 0.000000
C357  C     C_R   0.575853 0.275673 0.663615 0.000000
C358  C     C_R   0.630393 0.301572 0.686619 0.000000
C359  C     C_R   0.661306 0.346456 0.649978 0.000000
C360  C     C_R   0.638017 0.362717 0.590265 0.000000
N120  N     N_R   0.661923 0.401681 0.545525 0.000000
H391  H     H_    0.649811 0.373502 0.327115 0.000000
H392  H     H_    0.584027 0.350723 0.352718 0.000000
H393  H     H_    0.609112 0.429741 0.323399 0.000000
H394  H     H_    0.689766 0.414614 0.412049 0.000000
H395  H     H_    0.641771 0.473176 0.433571 0.000000
H396  H     H_    0.576744 0.425258 0.408622 0.000000
H397  H     H_    0.508724 0.276233 0.585731 0.000000
H398  H     H_    0.552370 0.240298 0.692417 0.000000
H399  H     H_    0.648662 0.286988 0.733762 0.000000
H400  H     H_    0.701261 0.370164 0.668522 0.000000
C361  C     C_3   0.193099 0.436094 0.992509 0.000000
N121  N     N_3   0.179810 0.481520 0.939960 0.000000
C362  C     C_3   0.135777 0.512456 0.943555 0.000000
C363  C     C_R   0.140285 0.520779 0.006568 0.000000
N122  N     N_R   0.107848 0.477847 0.044679 0.000000
C364  C     C_R   0.139498 0.484429 0.099799 0.000000
C365  C     C_R   0.129000 0.453268 0.156056 0.000000
C366  C     C_R   0.163594 0.470949 0.207261 0.000000
C367  C     C_R   0.207770 0.518383 0.201995 0.000000
C368  C     C_R   0.217388 0.549987 0.145453 0.000000
C369  C     C_R   0.184538 0.531046 0.094725 0.000000
N123  N     N_R   0.186332 0.557743 0.036134 0.000000
H401  H     H_    0.153143 0.409585 0.002364 0.000000
H402  H     H_    0.218264 0.407307 0.981017 0.000000
H403  H     H_    0.219223 0.454963 0.031698 0.000000
H404  H     H_    0.164652 0.461450 0.902535 0.000000
H405  H     H_    0.139477 0.552962 0.909032 0.000000
H406  H     H_    0.093879 0.486354 0.930437 0.000000
H407  H     H_    0.093183 0.417936 0.160656 0.000000
H408  H     H_    0.155079 0.448842 0.252052 0.000000
H409  H     H_    0.233494 0.532063 0.242548 0.000000
H410  H     H_    0.248214 0.589676 0.141896 0.000000
C370  C     C_3   0.065403 0.646490 0.877240 0.000000
N124  N     N_3   0.101945 0.629322 0.934041 0.000000
C371  C     C_3   0.105152 0.670115 0.972522 0.000000
C372  C     C_R   0.149327 0.718788 0.955096 0.000000
N125  N     N_R   0.136242 0.772193 0.919733 0.000000
C373  C     C_R   0.189207 0.803208 0.915954 0.000000
C374  C     C_R   0.203692 0.861456 0.889926 0.000000
C375  C     C_R   0.260250 0.887513 0.897312 0.000000
C376  C     C_R   0.301882 0.854530 0.928597 0.000000
C377  C     C_R   0.287370 0.794840 0.951124 0.000000
C378  C     C_R   0.230549 0.770313 0.947803 0.000000
N126  N     N_R   0.207075 0.715686 0.974873 0.000000
H411  H     H_    0.024481 0.653780 0.884268 0.000000
H412  H     H_    0.087131 0.686797 0.850562 0.000000
H413  H     H_    0.056386 0.608864 0.854188 0.000000
H414  H     H_    0.142648 0.637550 0.923078 0.000000
H415  H     H_    0.064460 0.686312 0.966910 0.000000
H416  H     H_    0.118335 0.648627 0.020125 0.000000
H417  H     H_    0.172434 0.886482 0.863063 0.000000
H418  H     H_    0.272079 0.933610 0.877709 0.000000
H419  H     H_    0.346187 0.875167 0.933589 0.000000
H420  H     H_    0.320622 0.768827 0.971086 0.000000
C379  C     C_3   0.387504 0.466688 0.124298 0.000000
N127  N     N_3   0.405151 0.527809 0.131936 0.000000
C380  C     C_3   0.358472 0.546065 0.149456 0.000000
C381  C     C_R   0.368103 0.611557 0.141948 0.000000
N128  N     N_R   0.414054 0.642440 0.178835 0.000000
C382  C     C_R   0.403192 0.697954 0.155917 0.000000
C383  C     C_R   0.434629 0.748847 0.171693 0.000000
C384  C     C_R   0.416012 0.802057 0.144468 0.000000
C385  C     C_R   0.365462 0.803134 0.103777 0.000000
C386  C     C_R   0.334809 0.751441 0.087835 0.000000
C387  C     C_R   0.354973 0.699923 0.111760 0.000000
N129  N     N_R   0.330459 0.646493 0.098970 0.000000
H421  H     H_    0.422477 0.451924 0.110631 0.000000
H422  H     H_    0.377780 0.438233 0.167890 0.000000
H423  H     H_    0.349304 0.462431 0.088190 0.000000
H424  H     H_    0.412119 0.553777 0.089838 0.000000
H425  H     H_    0.317848 0.531834 0.120061 0.000000
H426  H     H_    0.355743 0.525773 0.197742 0.000000
H427  H     H_    0.473628 0.746905 0.202630 0.000000
H428  H     H_    0.440045 0.843401 0.154693 0.000000
H429  H     H_    0.349863 0.844402 0.084556 0.000000
H430  H     H_    0.294266 0.750914 0.059612 0.000000
C388  C     C_3   0.644330 0.250429 0.481451 0.000000
N130  N     N_3   0.687665 0.300473 0.495046 0.000000
C389  C     C_3   0.727597 0.312556 0.452755 0.000000
C390  C     C_R   0.779361 0.356015 0.471302 0.000000
N131  N     N_R   0.780758 0.401977 0.499920 0.000000
C391  C     C_R   0.833530 0.431058 0.497494 0.000000
C392  C     C_R   0.855004 0.484260 0.511108 0.000000
C393  C     C_R   0.907619 0.510880 0.499976 0.000000
C394  C     C_R   0.935260 0.485625 0.468969 0.000000
C395  C     C_R   0.911234 0.433217 0.452618 0.000000
C396  C     C_R   0.861293 0.406358 0.469366 0.000000
N132  N     N_R   0.830293 0.357632 0.454267 0.000000
H431  H     H_    0.663489 0.209584 0.493065 0.000000
H432  H     H_    0.610491 0.244619 0.509009 0.000000
H433  H     H_    0.625087 0.258557 0.432423 0.000000
H434  H     H_    0.709237 0.288623 0.539373 0.000000
H435  H     H_    0.738119 0.271593 0.447298 0.000000
H436  H     H_    0.708161 0.328201 0.405608 0.000000
H437  H     H_    0.829313 0.506287 0.525102 0.000000
H438  H     H_    0.924796 0.553063 0.512022 0.000000
H439  H     H_    0.974107 0.507585 0.454436 0.000000
H440  H     H_    0.931599 0.413486 0.428633 0.000000
C397  C     C_3   0.034323 0.452727 0.279278 0.000000
N133  N     N_3   0.991308 0.485898 0.281041 0.000000
C398  C     C_3   0.955683 0.452190 0.324483 0.000000
C399  C     C_R   0.896092 0.428679 0.295546 0.000000
N134  N     N_R   0.865660 0.461244 0.243980 0.000000
C400  C     C_R   0.814648 0.425354 0.238334 0.000000
C401  C     C_R   0.765347 0.440064 0.201013 0.000000
C402  C     C_R   0.714942 0.400925 0.205875 0.000000
C403  C     C_R   0.713613 0.350835 0.251483 0.000000
C404  C     C_R   0.762401 0.339951 0.293056 0.000000
C405  C     C_R   0.813470 0.375728 0.283850 0.000000
N135  N     N_R   0.863661 0.376374 0.323240 0.000000
H441  H     H_    0.063904 0.479691 0.249655 0.000000
H442  H     H_    0.060706 0.443944 0.324977 0.000000
H443  H     H_    0.013261 0.413225 0.259813 0.000000
H444  H     H_    0.013908 0.522793 0.298749 0.000000
H445  H     H_    0.976731 0.418020 0.354015 0.000000
H446  H     H_    0.954209 0.480750 0.354920 0.000000
H447  H     H_    0.766107 0.480528 0.167947 0.000000
H448  H     H_    0.675983 0.410578 0.175551 0.000000
H449  H     H_    0.673394 0.322292 0.257086 0.000000
H450  H     H_    0.759046 0.307243 0.334012 0.000000
C406  C     C_3   0.799400 0.381417 0.095297 0.000000
N136  N     N_3   0.791380 0.440676 0.062710 0.000000
C407  C     C_3   0.842635 0.481951 0.079415 0.000000
C408  C     C_R   0.831573 0.543397 0.057963 0.000000
N137  N     N_R   0.816138 0.573399 0.998500 0.000000
C409  C     C_R   0.794912 0.618127 0.006935 0.000000
C410  C     C_R   0.777466 0.663527 0.962488 0.000000
C411  C     C_R   0.764666 0.710886 0.979927 0.000000
C412  C     C_R   0.769955 0.711466 0.041068 0.000000
C413  C     C_R   0.789184 0.665576 0.084956 0.000000
C414  C     C_R   0.801172 0.618104 0.067441 0.000000
N138  N     N_R   0.826478 0.571741 0.101283 0.000000
H451  H     H_    0.771523 0.348576 0.069620 0.000000
H452  H     H_    0.844720 0.376849 0.101230 0.000000
H453  H     H_    0.787148 0.371709 0.140408 0.000000
H454  H     H_    0.756821 0.451747 0.075310 0.000000
H455  H     H_    0.852855 0.474684 0.129314 0.000000
H456  H     H_    0.880338 0.474476 0.065804 0.000000
H457  H     H_    0.779343 0.664456 0.915720 0.000000
H458  H     H_    0.753397 0.748840 0.946267 0.000000
H459  H     H_    0.762038 0.749574 0.054741 0.000000
H460  H     H_    0.796314 0.669588 0.131101 0.000000
C415  C     C_3   0.967241 0.587265 0.021138 0.000000
N139  N     N_3   0.008554 0.575662 0.990556 0.000000
C416  C     C_3   0.978305 0.543543 0.944278 0.000000
C417  C     C_R   0.935908 0.496835 0.970216 0.000000
N140  N     N_R   0.950591 0.443142 0.003519 0.000000
C418  C     C_R   0.899603 0.407283 0.996381 0.000000
C419  C     C_R   0.892584 0.348581 0.993269 0.000000
C420  C     C_R   0.838982 0.320464 0.971056 0.000000
C421  C     C_R   0.792825 0.350037 0.956167 0.000000
C422  C     C_R   0.801262 0.410091 0.954746 0.000000
C423  C     C_R   0.856497 0.439285 0.967147 0.000000
N141  N     N_R   0.877886 0.497852 0.949911 0.000000
H461  H     H_    0.950316 0.548316 0.051943 0.000000
H462  H     H_    0.988615 0.620538 0.048418 0.000000
H463  H     H_    0.930252 0.600963 0.989038 0.000000
H464  H     H_    0.033433 0.547381 0.021121 0.000000
H465  H     H_    0.956756 0.572781 0.905195 0.000000
H466  H     H_    0.008827 0.523659 0.929138 0.000000
H467  H     H_    0.928957 0.326163 0.003524 0.000000
H468  H     H_    0.832691 0.274493 0.967665 0.000000
H469  H     H_    0.750353 0.326657 0.943112 0.000000
H470  H     H_    0.765160 0.433038 0.942825 0.000000
C424  C     C_3   0.923679 0.698112 0.053737 0.000000
N142  N     N_3   0.957758 0.731072 0.009935 0.000000
C425  C     C_3   0.920960 0.731257 0.953135 0.000000
C426  C     C_R   0.943128 0.700904 0.918117 0.000000
N143  N     N_R   0.977634 0.740090 0.879878 0.000000
C427  C     C_R   0.945261 0.730404 0.825897 0.000000
C428  C     C_R   0.942032 0.769310 0.771612 0.000000
C429  C     C_R   0.894019 0.759285 0.727410 0.000000
C430  C     C_R   0.854517 0.708040 0.734958 0.000000
C431  C     C_R   0.859652 0.667676 0.787976 0.000000
C432  C     C_R   0.902664 0.681591 0.833507 0.000000
N144  N     N_R   0.902065 0.658002 0.891825 0.000000
H471  H     H_    0.951813 0.694979 0.096645 0.000000
H472  H     H_    0.889233 0.722537 0.052588 0.000000
H473  H     H_    0.906507 0.653476 0.045708 0.000000
H474  H     H_    0.992090 0.710912 0.010641 0.000000
H475  H     H_    0.877686 0.709695 0.957910 0.000000
H476  H     H_    0.919273 0.776959 0.928016 0.000000
H477  H     H_    0.975783 0.805906 0.764113 0.000000
H478  H     H_    0.886704 0.789794 0.685377 0.000000
H479  H     H_    0.821367 0.697753 0.698022 0.000000
H480  H     H_    0.830587 0.627042 0.793284 0.000000

loop_
_geom_bond_atom_site_label_1
_geom_bond_atom_site_label_2
_geom_bond_distance
_geom_bond_site_symmetry_2
_ccdc_geom_bond_type
Zn1   N3    2.139 .      S
Zn1   N6    2.107 .      S
Zn1   N132  1.909 .      S
Zn1   N135  2.221 .      S
Zn2   N2    1.996 .      S
Zn2   N83   2.202 .      S
Zn2   N90   2.233 .      S
Zn2   N96   2.382 1_545  S
Zn3   N5    2.106 .      S
Zn3   N74   2.291 .      S
Zn3   N92   2.155 .      S
Zn3   N108  1.905 .      S
Zn4   N9    2.339 .      S
Zn4   N78   2.084 .      S
Zn4   N101  2.225 .      S
Zn4   N116  2.097 .      S
Zn5   N8    2.406 .      S
Zn5   N137  2.052 .      S
Zn5   N141  2.225 .      S
Zn5   N144  2.278 .      S
Zn6   N11   1.900 .      S
Zn6   N14   2.127 .      S
Zn6   N18   2.202 .      S
Zn6   N20   2.120 .      S
Zn7   N12   1.937 .      S
Zn7   N23   2.088 .      S
Zn7   N27   2.171 .      S
Zn7   N29   2.302 .      S
Zn8   N15   2.135 1_655  S
Zn8   N32   2.200 1_655  S
Zn8   N35   1.881 1_655  S
Zn8   N39   2.274 .      S
Zn9   N17   2.233 .      S
Zn9   N42   1.920 .      S
Zn9   N45   2.084 .      S
Zn9   N48   2.089 .      S
Zn10  N21   1.999 .      S
Zn10  N51   2.171 .      S
Zn10  N54   2.224 .      S
Zn10  N56   2.344 .      S
Zn11  N30   2.292 .      S
Zn11  N36   1.898 .      S
Zn11  N59   2.110 .      S
Zn11  N63   2.128 .      S
Zn12  N38   2.231 .      S
Zn12  N66   2.140 .      S
Zn12  N69   2.164 .      S
Zn12  N71   1.909 .      S
Zn13  N24   2.141 .      S
Zn13  N41   1.910 .      S
Zn13  N75   2.310 .      S
Zn13  N77   2.241 .      S
Zn14  N33   2.112 .      S
Zn14  N53   2.267 .      S
Zn14  N80   2.301 .      S
Zn14  N84   2.065 1_455  S
Zn15  N50   2.114 .      S
Zn15  N86   2.272 1_545  S
Zn15  N89   2.235 1_455  S
Zn15  N93   2.032 .      S
Zn16  N26   2.028 .      S
Zn16  N95   2.341 .      S
Zn16  N98   2.171 .      S
Zn16  N102  2.282 .      S
Zn17  N44   2.095 .      S
Zn17  N104  2.185 .      S
Zn17  N107  1.850 .      S
Zn17  N110  2.310 1_455  S
Zn18  N57   2.342 .      S
Zn18  N113  2.315 .      S
Zn18  N117  2.239 .      S
Zn18  N119  2.079 .      S
Zn19  N65   2.105 .      S
Zn19  N99   2.107 .      S
Zn19  N114  2.263 .      S
Zn19  N128  2.336 .      S
Zn20  N47   1.996 1_554  S
Zn20  N123  2.269 .      S
Zn20  N126  2.194 1_554  S
Zn20  N129  2.347 .      S
Zn21  N68   2.176 .      S
Zn21  N111  2.327 .      S
Zn21  N120  2.160 .      S
Zn21  N131  1.978 .      S
Zn22  N62   2.093 .      S
Zn22  N72   1.861 .      S
Zn22  N134  2.208 .      S
Zn22  N138  2.080 .      S
Zn23  N81   2.318 .      S
Zn23  N105  2.040 1_554  S
Zn23  N122  2.257 .      S
Zn23  N140  2.145 1_455  S
Zn24  N60   2.044 .      S
Zn24  N87   2.265 .      S
Zn24  N125  2.162 .      S
Zn24  N143  2.303 1_455  S
C1    N1    1.434 .      S
C1    H1    1.099 .      S
C1    H2    1.102 .      S
C1    H3    1.098 .      S
N1    C2    1.426 .      S
N1    H4    1.034 .      S
C2    C3    1.445 .      S
C2    H5    1.086 .      S
C2    H6    1.081 .      S
C5    H7    1.068 .      S
C6    H8    1.077 .      S
C7    H9    1.081 .      S
C8    H10   1.055 .      S
C10   N4    1.440 .      S
C10   H11   1.105 .      S
C10   H12   1.102 .      S
C10   H13   1.102 .      S
N4    C11   1.420 .      S
N4    H14   1.031 .      S
C11   C12   1.441 .      S
C11   H15   1.093 .      S
C11   H16   1.050 .      S
C14   H17   1.064 .      S
C15   H18   1.073 .      S
C16   H19   1.070 .      S
C17   H20   1.068 1_455  S
H20   C17   1.068 1_655  S
C19   N7    1.455 .      S
C19   H21   1.109 .      S
C19   H22   1.109 .      S
C19   H23   1.108 .      S
N7    C20   1.451 .      S
N7    H24   1.042 .      S
C20   C21   1.493 .      S
C20   H25   1.106 .      S
C20   H26   1.109 .      S
C23   H27   1.048 .      S
C24   H28   1.080 .      S
C25   H29   1.065 .      S
C26   H30   1.054 .      S
C28   N10   1.454 .      S
C28   H31   1.109 1_565  S
C28   H32   1.109 1_565  S
C28   H33   1.109 .      S
N10   C29   1.451 .      S
N10   H34   1.037 .      S
C29   C30   1.508 .      S
C29   H35   1.081 .      S
C29   H36   1.085 .      S
C32   H37   1.061 .      S
C33   H38   1.069 .      S
C34   H39   1.067 .      S
C35   H40   1.047 .      S
H31   C28   1.109 1_545  S
H32   C28   1.109 1_545  S
C37   N13   1.437 .      S
C37   H41   1.106 .      S
C37   H42   1.106 .      S
C37   H43   1.098 .      S
N13   C38   1.426 .      S
N13   H44   1.031 .      S
C38   C39   1.473 .      S
C38   H45   1.094 .      S
C38   H46   1.070 .      S
C41   H47   1.057 .      S
C42   H48   1.068 .      S
C43   H49   1.075 .      S
C44   H50   1.068 .      S
N15   Zn8   2.135 1_455  S
C46   N16   1.455 .      S
C46   H51   1.107 .      S
C46   H52   1.107 .      S
C46   H53   1.105 .      S
N16   C47   1.449 .      S
N16   H54   1.030 .      S
C47   C48   1.453 .      S
C47   H55   1.094 .      S
C47   H56   1.103 .      S
C50   H57   1.080 .      S
C51   H58   1.072 .      S
C52   H59   1.073 .      S
C53   H60   1.080 .      S
C55   N19   1.455 .      S
C55   H61   1.110 1_565  S
C55   H62   1.103 .      S
C55   H63   1.110 1_565  S
N19   C56   1.446 1_565  S
N19   H64   1.041 .      S
C56   N19   1.446 1_545  S
C56   C57   1.476 .      S
C56   H65   1.104 .      S
C56   H66   1.098 .      S
C59   H67   1.052 .      S
C60   H68   1.080 .      S
C61   H69   1.081 .      S
C62   H70   1.073 .      S
H61   C55   1.110 1_545  S
H63   C55   1.110 1_545  S
C64   N22   1.455 .      S
C64   H71   1.086 .      S
C64   H72   1.097 .      S
C64   H73   1.092 .      S
N22   C65   1.441 .      S
N22   H74   1.035 .      S
C65   C66   1.472 .      S
C65   H75   1.075 .      S
C65   H76   1.085 .      S
C68   H77   1.081 .      S
C69   H78   1.080 .      S
C70   H79   1.079 .      S
C71   H80   1.070 .      S
C73   N25   1.453 .      S
C73   H81   1.109 .      S
C73   H82   1.109 .      S
C73   H83   1.108 .      S
N25   C74   1.454 .      S
N25   H84   1.044 .      S
C74   C75   1.476 .      S
C74   H85   1.109 .      S
C74   H86   1.093 .      S
C77   H87   1.071 .      S
C78   H88   1.079 .      S
C79   H89   1.074 .      S
C80   H90   1.047 .      S
C82   N28   1.448 .      S
C82   H91   1.097 .      S
C82   H92   1.106 .      S
C82   H93   1.101 .      S
N28   C83   1.447 .      S
N28   H94   1.030 .      S
C83   C84   1.503 .      S
C83   H95   1.081 .      S
C83   H96   1.069 .      S
C86   H97   1.068 .      S
C87   H98   1.081 .      S
C88   H99   1.081 .      S
C89   H100  1.080 .      S
C91   N31   1.451 .      S
C91   H101  1.109 .      S
C91   H102  1.095 .      S
C91   H103  1.097 .      S
N31   C92   1.428 1_565  S
N31   H104  1.028 .      S
C92   N31   1.428 1_545  S
C92   C93   1.473 .      S
C92   H105  1.079 .      S
C92   H106  1.085 .      S
N32   Zn8   2.200 1_455  S
C95   H107  1.058 .      S
C96   H108  1.081 .      S
C97   H109  1.081 .      S
C98   H110  1.069 .      S
C100  N34   1.457 .      S
C100  H111  1.108 .      S
C100  H112  1.108 .      S
C100  H113  1.109 .      S
N34   C101  1.423 .      S
N34   H114  1.028 .      S
C101  C102  1.486 1_655  S
C101  H115  1.083 .      S
C101  H116  1.105 1_655  S
C102  C101  1.486 1_455  S
N35   Zn8   1.881 1_455  S
C104  H117  1.060 .      S
C105  H118  1.078 .      S
C106  H119  1.079 .      S
C107  H120  1.051 .      S
H116  C101  1.105 1_455  S
C109  N37   1.449 .      S
C109  H121  1.085 .      S
C109  H122  1.103 .      S
C109  H123  1.099 .      S
N37   C110  1.446 .      S
N37   H124  1.040 .      S
C110  C111  1.436 .      S
C110  H125  1.073 .      S
C110  H126  1.085 .      S
C113  H127  1.068 .      S
C114  H128  1.080 .      S
C115  H129  1.081 .      S
C116  H130  1.078 .      S
C118  N40   1.457 .      S
C118  H131  1.104 .      S
C118  H132  1.108 .      S
C118  H133  1.106 .      S
N40   C119  1.432 .      S
N40   H134  1.031 .      S
C119  C120  1.492 .      S
C119  H135  1.077 .      S
C119  H136  1.105 .      S
C122  H137  1.063 .      S
C123  H138  1.073 .      S
C124  H139  1.080 .      S
C125  H140  1.063 .      S
C127  N43   1.451 .      S
C127  H141  1.101 .      S
C127  H142  1.104 .      S
C127  H143  1.105 .      S
N43   C128  1.429 .      S
N43   H144  1.037 .      S
C128  C129  1.476 .      S
C128  H145  1.064 .      S
C128  H146  1.099 .      S
C131  H147  1.051 .      S
C132  H148  1.044 .      S
C133  H149  1.073 .      S
C134  H150  1.051 .      S
C136  N46   1.456 .      S
C136  H151  1.108 .      S
C136  H152  1.108 .      S
C136  H153  1.108 .      S
N46   C137  1.447 .      S
N46   H154  1.039 .      S
C137  C138  1.495 .      S
C137  H155  1.110 .      S
C137  H156  1.108 .      S
N47   Zn20  1.996 1_556  S
C140  H157  1.075 1_556  S
C141  H158  1.081 .      S
C142  H159  1.078 .      S
C143  H160  1.049 .      S
H157  C140  1.075 1_554  S
C145  N49   1.445 1_565  S
C145  H161  1.094 .      S
C145  H162  1.097 .      S
C145  H163  1.104 1_565  S
N49   C145  1.445 1_545  S
N49   C146  1.447 .      S
N49   H164  1.039 .      S
C146  C147  1.441 .      S
C146  H165  1.083 .      S
C146  H166  1.093 .      S
C149  H167  1.070 .      S
C150  H168  1.080 .      S
C151  H169  1.081 .      S
C152  H170  1.077 .      S
H163  C145  1.104 1_545  S
C154  N52   1.421 .      S
C154  H171  1.079 1_545  S
C154  H172  1.106 .      S
C154  H173  1.096 .      S
N52   C155  1.400 .      S
N52   H174  1.026 .      S
C155  C156  1.410 .      S
C155  H175  1.094 .      S
C155  H176  1.101 .      S
C158  H177  1.060 .      S
C159  H178  1.074 .      S
C160  H179  1.070 .      S
C161  H180  1.067 .      S
H171  C154  1.079 1_565  S
C163  N55   1.453 .      S
C163  H181  1.109 .      S
C163  H182  1.109 .      S
C163  H183  1.109 .      S
N55   C164  1.453 .      S
N55   H184  1.044 .      S
C164  C165  1.484 .      S
C164  H185  1.101 .      S
C164  H186  1.104 .      S
C167  H187  1.063 .      S
C168  H188  1.078 .      S
C169  H189  1.080 .      S
C170  H190  1.064 .      S
C172  N58   1.453 .      S
C172  H191  1.106 .      S
C172  H192  1.085 .      S
C172  H193  1.102 .      S
N58   C173  1.435 .      S
N58   H194  1.044 .      S
C173  C174  1.467 .      S
C173  H195  1.088 .      S
C173  H196  1.086 .      S
C176  H197  1.063 .      S
C177  H198  1.080 .      S
C178  H199  1.081 .      S
C179  H200  1.075 .      S
C181  N61   1.449 .      S
C181  H201  1.104 .      S
C181  H202  1.103 .      S
C181  H203  1.108 .      S
N61   C182  1.435 .      S
N61   H204  1.028 .      S
C182  C183  1.489 .      S
C182  H205  1.068 .      S
C182  H206  1.103 .      S
C185  H207  1.078 .      S
C186  H208  1.077 .      S
C187  H209  1.050 .      S
C188  H210  1.064 .      S
C190  N64   1.450 .      S
C190  H211  1.090 .      S
C190  H212  1.094 .      S
C190  H213  1.100 .      S
N64   C191  1.464 .      S
N64   H214  1.035 .      S
C191  C192  1.470 .      S
C191  H215  1.070 .      S
C191  H216  1.091 .      S
C194  H217  1.079 .      S
C195  H218  1.081 .      S
C196  H219  1.080 .      S
C197  H220  1.078 .      S
C199  N67   1.424 .      S
C199  H221  1.097 .      S
C199  H222  1.092 .      S
C199  H223  1.086 .      S
N67   C200  1.429 .      S
N67   H224  1.037 .      S
C200  C201  1.451 .      S
C200  H225  1.070 .      S
C200  H226  1.088 .      S
C203  H227  1.081 .      S
C204  H228  1.076 .      S
C205  H229  1.076 .      S
C206  H230  1.074 .      S
C208  N70   1.452 .      S
C208  H231  1.100 .      S
C208  H232  1.107 .      S
C208  H233  1.108 .      S
N70   C209  1.447 .      S
N70   H234  1.037 .      S
C209  C210  1.500 .      S
C209  H235  1.100 .      S
C209  H236  1.082 .      S
C212  H237  1.055 .      S
C213  H238  1.061 .      S
C214  H239  1.072 .      S
C215  H240  1.038 .      S
C217  N73   1.448 .      S
C217  H241  1.107 .      S
C217  H242  1.107 .      S
C217  H243  1.109 .      S
N73   C218  1.441 .      S
N73   H244  1.042 .      S
C218  C219  1.463 .      S
C218  H245  1.082 .      S
C218  H246  1.084 .      S
C221  H247  1.075 .      S
C222  H248  1.081 .      S
C223  H249  1.081 .      S
C224  H250  1.072 .      S
C226  N76   1.437 .      S
C226  H251  1.108 .      S
C226  H252  1.094 .      S
C226  H253  1.092 .      S
N76   C227  1.449 .      S
N76   H254  1.031 .      S
C227  C228  1.460 .      S
C227  H255  1.078 .      S
C227  H256  1.083 .      S
C230  H257  1.059 .      S
C231  H258  1.081 .      S
C232  H259  1.079 .      S
C233  H260  1.073 .      S
C235  N79   1.454 .      S
C235  H261  1.108 .      S
C235  H262  1.101 .      S
C235  H263  1.094 .      S
N79   C236  1.454 .      S
N79   H264  1.043 .      S
C236  C237  1.477 1_655  S
C236  H265  1.096 .      S
C236  H266  1.080 .      S
C237  C236  1.477 1_455  S
C239  H267  1.079 .      S
C240  H268  1.081 .      S
C241  H269  1.081 .      S
C242  H270  1.053 .      S
C244  N82   1.445 1_455  S
C244  H271  1.100 .      S
C244  H272  1.086 .      S
C244  H273  1.106 .      S
N82   C244  1.445 1_655  S
N82   C245  1.437 .      S
N82   H274  1.041 1_655  S
C245  C246  1.459 .      S
C245  H275  1.096 1_655  S
C245  H276  1.072 .      S
C248  H277  1.079 .      S
C249  H278  1.081 .      S
C250  H279  1.081 .      S
C251  H280  1.079 .      S
N84   Zn14  2.065 1_655  S
H274  N82   1.041 1_455  S
H275  C245  1.096 1_455  S
C253  N85   1.453 .      S
C253  H281  1.109 .      S
C253  H282  1.110 .      S
C253  H283  1.109 .      S
N85   C254  1.450 .      S
N85   H284  1.044 .      S
C254  C255  1.494 1_655  S
C254  H285  1.107 .      S
C254  H286  1.089 .      S
C255  C254  1.494 1_455  S
N86   Zn15  2.272 1_565  S
C257  H287  1.077 .      S
C258  H288  1.081 .      S
C259  H289  1.081 .      S
C260  H290  1.074 .      S
C262  N88   1.461 .      S
C262  H291  1.098 .      S
C262  H292  1.108 .      S
C262  H293  1.107 .      S
N88   C263  1.456 .      S
N88   H294  1.038 .      S
C263  C264  1.478 .      S
C263  H295  1.106 .      S
C263  H296  1.097 .      S
N89   Zn15  2.235 1_655  S
C266  H297  1.075 1_655  S
C267  H298  1.073 .      S
C268  H299  1.079 .      S
C269  H300  1.078 .      S
H297  C266  1.075 1_455  S
C271  N91   1.451 .      S
C271  H301  1.097 .      S
C271  H302  1.109 .      S
C271  H303  1.091 .      S
N91   C272  1.437 .      S
N91   H304  1.032 .      S
C272  C273  1.469 .      S
C272  H305  1.090 .      S
C272  H306  1.099 .      S
C275  H307  1.035 .      S
C276  H308  1.079 .      S
C277  H309  1.081 .      S
C278  H310  1.067 .      S
C280  N94   1.454 .      S
C280  H311  1.109 1_565  S
C280  H312  1.106 .      S
C280  H313  1.105 .      S
N94   C281  1.452 .      S
N94   H314  1.041 1_565  S
C281  C282  1.487 .      S
C281  H315  1.105 .      S
C281  H316  1.101 .      S
C284  H317  1.073 .      S
C285  H318  1.076 .      S
C286  H319  1.070 .      S
C287  H320  1.069 .      S
N96   Zn2   2.382 1_565  S
H311  C280  1.109 1_545  S
H314  N94   1.041 1_545  S
C289  N97   1.455 .      S
C289  H321  1.109 .      S
C289  H322  1.107 .      S
C289  H323  1.108 .      S
N97   C290  1.450 .      S
N97   H324  1.032 .      S
C290  C291  1.516 .      S
C290  H325  1.095 .      S
C290  H326  1.098 .      S
C293  H327  1.054 .      S
C294  H328  1.065 .      S
C295  H329  1.066 .      S
C296  H330  1.055 .      S
C298  N100  1.451 .      S
C298  H331  1.107 .      S
C298  H332  1.107 .      S
C298  H333  1.109 .      S
N100  C299  1.461 .      S
N100  H334  1.039 .      S
C299  C300  1.472 .      S
C299  H335  1.092 .      S
C299  H336  1.101 .      S
C302  H337  1.066 .      S
C303  H338  1.077 .      S
C304  H339  1.076 .      S
C305  H340  1.061 .      S
C307  N103  1.437 .      S
C307  H341  1.095 .      S
C307  H342  1.101 .      S
C307  H343  1.103 .      S
N103  C308  1.428 .      S
N103  H344  1.040 .      S
C308  C309  1.454 1_655  S
C308  H345  1.036 .      S
C308  H346  1.099 .      S
C309  C308  1.454 1_455  S
C311  H347  1.048 .      S
C312  H348  1.081 .      S
C313  H349  1.081 .      S
C314  H350  1.070 1_556  S
N105  Zn23  2.040 1_556  S
H350  C314  1.070 1_554  S
C316  N106  1.458 .      S
C316  H351  1.108 .      S
C316  H352  1.109 .      S
C316  H353  1.098 .      S
N106  C317  1.459 .      S
N106  H354  1.035 .      S
C317  C318  1.494 .      S
C317  H355  1.083 .      S
C317  H356  1.063 .      S
C320  H357  1.064 .      S
C321  H358  1.078 .      S
C322  H359  1.077 .      S
C323  H360  1.066 .      S
C325  N109  1.452 .      S
C325  H361  1.095 .      S
C325  H362  1.108 .      S
C325  H363  1.091 .      S
N109  C326  1.437 .      S
N109  H364  1.041 .      S
C326  C327  1.496 .      S
C326  H365  1.072 .      S
C326  H366  1.091 .      S
N110  Zn17  2.310 1_655  S
C329  H367  1.076 .      S
C330  H368  1.081 .      S
C331  H369  1.081 .      S
C332  H370  1.076 .      S
C334  N112  1.449 .      S
C334  H371  1.093 .      S
C334  H372  1.098 .      S
C334  H373  1.105 .      S
N112  C335  1.448 .      S
N112  H374  1.043 .      S
C335  C336  1.466 .      S
C335  H375  1.104 .      S
C335  H376  1.086 .      S
C338  H377  1.075 .      S
C339  H378  1.081 .      S
C340  H379  1.080 .      S
C341  H380  1.081 .      S
C343  N115  1.452 .      S
C343  H381  1.109 .      S
C343  H382  1.103 .      S
C343  H383  1.109 .      S
N115  C344  1.454 .      S
N115  H384  1.042 .      S
C344  C345  1.502 .      S
C344  H385  1.108 .      S
C344  H386  1.090 .      S
C347  H387  1.063 .      S
C348  H388  1.062 .      S
C349  H389  1.071 .      S
C350  H390  1.012 .      S
C352  N118  1.451 .      S
C352  H391  1.101 .      S
C352  H392  1.104 .      S
C352  H393  1.109 .      S
N118  C353  1.428 .      S
N118  H394  1.029 .      S
C353  C354  1.453 .      S
C353  H395  1.090 .      S
C353  H396  1.082 .      S
C356  H397  1.078 .      S
C357  H398  1.081 .      S
C358  H399  1.081 .      S
C359  H400  1.070 .      S
C361  N121  1.444 .      S
C361  H401  1.079 1_556  S
C361  H402  1.107 .      S
C361  H403  1.108 1_556  S
N121  C362  1.440 .      S
N121  H404  1.035 .      S
C362  C363  1.478 1_556  S
C362  H405  1.092 .      S
C362  H406  1.096 .      S
C363  C362  1.478 1_554  S
C365  H407  1.078 .      S
C366  H408  1.080 .      S
C367  H409  1.078 .      S
C368  H410  1.070 .      S
H401  C361  1.079 1_554  S
H403  C361  1.108 1_554  S
C370  N124  1.435 .      S
C370  H411  1.094 .      S
C370  H412  1.104 .      S
C370  H413  1.094 .      S
N124  C371  1.426 .      S
N124  H414  1.042 .      S
C371  C372  1.447 .      S
C371  H415  1.105 .      S
C371  H416  1.101 1_556  S
C374  H417  1.060 .      S
C375  H418  1.080 .      S
C376  H419  1.080 .      S
C377  H420  1.076 .      S
N126  Zn20  2.194 1_556  S
H416  C371  1.101 1_554  S
C379  N127  1.455 .      S
C379  H421  1.108 .      S
C379  H422  1.109 .      S
C379  H423  1.108 .      S
N127  C380  1.452 .      S
N127  H424  1.043 .      S
C380  C381  1.487 .      S
C380  H425  1.106 .      S
C380  H426  1.109 .      S
C383  H427  1.058 .      S
C384  H428  1.075 .      S
C385  H429  1.081 .      S
C386  H430  1.057 .      S
C388  N130  1.453 .      S
C388  H431  1.109 .      S
C388  H432  1.109 .      S
C388  H433  1.109 .      S
N130  C389  1.457 .      S
N130  H434  1.042 .      S
C389  C390  1.501 .      S
C389  H435  1.088 .      S
C389  H436  1.094 .      S
C392  H437  1.029 .      S
C393  H438  1.069 .      S
C394  H439  1.060 .      S
C395  H440  1.044 .      S
C397  N133  1.441 1_455  S
C397  H441  1.097 .      S
C397  H442  1.103 .      S
C397  H443  1.106 .      S
N133  C397  1.441 1_655  S
N133  C398  1.447 .      S
N133  H444  1.044 1_655  S
C398  C399  1.507 .      S
C398  H445  1.068 .      S
C398  H446  1.084 .      S
C401  H447  1.073 .      S
C402  H448  1.080 .      S
C403  H449  1.081 .      S
C404  H450  1.075 .      S
H444  N133  1.044 1_455  S
C406  N136  1.455 .      S
C406  H451  1.107 .      S
C406  H452  1.106 .      S
C406  H453  1.096 .      S
N136  C407  1.453 .      S
N136  H454  1.042 .      S
C407  C408  1.480 .      S
C407  H455  1.096 .      S
C407  H456  1.088 .      S
C410  H457  1.076 .      S
C411  H458  1.079 .      S
C412  H459  1.080 .      S
C413  H460  1.056 .      S
C415  N139  1.441 1_654  S
C415  H461  1.087 .      S
C415  H462  1.092 .      S
C415  H463  1.087 1_554  S
N139  C415  1.441 1_456  S
N139  C416  1.428 1_455  S
N139  H464  1.035 1_556  S
C416  N139  1.428 1_655  S
C416  C417  1.456 .      S
C416  H465  1.103 .      S
C416  H466  1.104 1_655  S
N140  Zn23  2.145 1_655  S
C419  H467  1.079 1_556  S
C420  H468  1.081 .      S
C421  H469  1.081 .      S
C422  H470  1.079 .      S
H463  C415  1.087 1_556  S
H464  N139  1.035 1_554  S
H466  C416  1.104 1_455  S
H467  C419  1.079 1_554  S
C424  N142  1.424 .      S
C424  H471  1.067 .      S
C424  H472  1.103 .      S
C424  H473  1.090 .      S
N142  C425  1.412 1_554  S
N142  H474  1.038 .      S
C425  N142  1.412 1_556  S
C425  C426  1.432 .      S
C425  H475  1.086 .      S
C425  H476  1.103 .      S
N143  Zn24  2.303 1_655  S
C428  H477  1.071 .      S
C429  H478  1.066 .      S
C430  H479  1.070 .      S
C431  H480  1.065 .      S
C3    N2    1.376 .      A
C3    N3    1.351 .      A
N2    C4    1.325 .      A
C4    C5    1.363 .      A
C4    C9    1.354 .      A
C5    C6    1.379 .      A
C6    C7    1.374 .      A
C7    C8    1.379 .      A
C8    C9    1.379 .      A
C9    N3    1.376 .      A
C12   N5    1.371 1_655  A
C12   N6    1.377 .      A
N5    C12   1.371 1_455  A
N5    C13   1.336 .      A
C13   C14   1.350 .      A
C13   C18   1.362 1_455  A
C14   C15   1.364 .      A
C15   C16   1.383 .      A
C16   C17   1.368 .      A
C17   C18   1.366 1_455  A
C18   C13   1.362 1_655  A
C18   C17   1.366 1_655  A
C18   N6    1.346 .      A
C21   N8    1.436 .      A
C21   N9    1.431 .      A
N8    C22   1.341 .      A
C22   C23   1.334 .      A
C22   C27   1.370 .      A
C23   C24   1.373 .      A
C24   C25   1.369 .      A
C25   C26   1.374 .      A
C26   C27   1.365 .      A
C27   N9    1.346 .      A
C30   N11   1.367 .      A
C30   N12   1.375 .      A
N11   C31   1.319 .      A
C31   C32   1.347 .      A
C31   C36   1.320 .      A
C32   C33   1.347 .      A
C33   C34   1.379 .      A
C34   C35   1.355 .      A
C35   C36   1.341 .      A
C36   N12   1.327 .      A
C39   N14   1.374 .      A
C39   N15   1.394 .      A
N14   C40   1.342 .      A
C40   C41   1.364 .      A
C40   C45   1.367 .      A
C41   C42   1.364 .      A
C42   C43   1.372 1_455  A
C43   C42   1.372 1_655  A
C43   C44   1.365 .      A
C44   C45   1.357 1_655  A
C45   C44   1.357 1_455  A
C45   N15   1.344 .      A
C48   N17   1.390 .      A
C48   N18   1.398 .      A
N17   C49   1.352 .      A
C49   C50   1.363 .      A
C49   C54   1.383 .      A
C50   C51   1.377 .      A
C51   C52   1.389 .      A
C52   C53   1.375 .      A
C53   C54   1.365 .      A
C54   N18   1.342 .      A
C57   N20   1.364 1_545  A
C57   N21   1.386 .      A
N20   C57   1.364 1_565  A
N20   C58   1.372 1_565  A
C58   N20   1.372 1_545  A
C58   C59   1.373 1_545  A
C58   C63   1.355 .      A
C59   C58   1.373 1_565  A
C59   C60   1.386 1_565  A
C60   C59   1.386 1_545  A
C60   C61   1.382 .      A
C61   C62   1.377 .      A
C62   C63   1.370 .      A
C63   N21   1.324 .      A
C66   N23   1.382 .      A
C66   N24   1.385 .      A
N23   C67   1.331 .      A
C67   C68   1.369 .      A
C67   C72   1.367 .      A
C68   C69   1.375 .      A
C69   C70   1.388 .      A
C70   C71   1.385 .      A
C71   C72   1.367 .      A
C72   N24   1.359 .      A
C75   N26   1.388 .      A
C75   N27   1.380 .      A
N26   C76   1.307 .      A
C76   C77   1.360 .      A
C76   C81   1.352 .      A
C77   C78   1.366 .      A
C78   C79   1.372 .      A
C79   C80   1.392 .      A
C80   C81   1.355 .      A
C81   N27   1.372 .      A
C84   N29   1.425 .      A
C84   N30   1.417 .      A
N29   C85   1.347 .      A
C85   C86   1.364 .      A
C85   C90   1.380 .      A
C86   C87   1.383 .      A
C87   C88   1.388 .      A
C88   C89   1.385 .      A
C89   C90   1.379 .      A
C90   N30   1.355 .      A
C93   N32   1.370 1_645  A
C93   N33   1.400 1_655  A
N32   C93   1.370 1_465  A
N32   C94   1.382 1_565  A
C94   N32   1.382 1_545  A
C94   C95   1.387 1_545  A
C94   C99   1.362 .      A
C95   C94   1.387 1_565  A
C95   C96   1.382 1_565  A
C96   C95   1.382 1_545  A
C96   C97   1.378 .      A
C97   C98   1.374 .      A
C98   C99   1.369 .      A
C99   N33   1.332 .      A
N33   C93   1.400 1_455  A
C102  N35   1.353 .      A
C102  N36   1.363 .      A
N35   C103  1.345 .      A
C103  C104  1.374 .      A
C103  C108  1.325 .      A
C104  C105  1.375 .      A
C105  C106  1.364 .      A
C106  C107  1.358 .      A
C107  C108  1.352 .      A
C108  N36   1.332 .      A
C111  N38   1.406 .      A
C111  N39   1.388 .      A
N38   C112  1.350 .      A
C112  C113  1.368 .      A
C112  C117  1.380 .      A
C113  C114  1.381 .      A
C114  C115  1.384 .      A
C115  C116  1.383 .      A
C116  C117  1.378 .      A
C117  N39   1.359 .      A
C120  N41   1.355 .      A
C120  N42   1.372 .      A
N41   C121  1.339 .      A
C121  C122  1.356 .      A
C121  C126  1.333 .      A
C122  C123  1.373 .      A
C123  C124  1.377 .      A
C124  C125  1.359 .      A
C125  C126  1.365 .      A
C126  N42   1.335 .      A
C129  N44   1.380 .      A
C129  N45   1.384 .      A
N44   C130  1.333 .      A
C130  C131  1.334 1_455  A
C130  C135  1.350 .      A
C131  C130  1.334 1_655  A
C131  C132  1.362 .      A
C132  C133  1.374 1_655  A
C133  C132  1.374 1_455  A
C133  C134  1.357 .      A
C134  C135  1.349 .      A
C135  N45   1.323 .      A
C138  N47   1.387 .      A
C138  N48   1.368 .      A
N47   C139  1.312 .      A
C139  C140  1.367 .      A
C139  C144  1.336 .      A
C140  C141  1.377 .      A
C141  C142  1.386 .      A
C142  C143  1.394 .      A
C143  C144  1.334 .      A
C144  N48   1.352 .      A
C147  N50   1.364 .      A
C147  N51   1.398 .      A
N50   C148  1.347 .      A
C148  C149  1.371 .      A
C148  C153  1.375 .      A
C149  C150  1.381 .      A
C150  C151  1.384 .      A
C151  C152  1.382 .      A
C152  C153  1.378 .      A
C153  N51   1.361 .      A
C156  N53   1.397 .      A
C156  N54   1.386 .      A
N53   C157  1.354 .      A
C157  C158  1.363 .      A
C157  C162  1.378 .      A
C158  C159  1.373 .      A
C159  C160  1.374 .      A
C160  C161  1.381 .      A
C161  C162  1.363 .      A
C162  N54   1.341 .      A
C165  N56   1.428 .      A
C165  N57   1.421 .      A
N56   C166  1.358 .      A
C166  C167  1.372 .      A
C166  C171  1.379 .      A
C167  C168  1.378 .      A
C168  C169  1.379 .      A
C169  C170  1.378 .      A
C170  C171  1.354 .      A
C171  N57   1.343 .      A
C174  N59   1.365 .      A
C174  N60   1.387 1_554  A
N59   C175  1.362 .      A
C175  C176  1.354 1_455  A
C175  C180  1.355 .      A
C176  C175  1.354 1_655  A
C176  C177  1.386 .      A
C177  C178  1.381 1_554  A
C178  C177  1.381 1_556  A
C178  C179  1.377 .      A
C179  C180  1.373 1_656  A
C180  C179  1.373 1_454  A
C180  N60   1.326 1_554  A
N60   C174  1.387 1_556  A
N60   C180  1.326 1_556  A
C183  N62   1.387 .      A
C183  N63   1.389 1_655  A
N62   C184  1.328 .      A
C184  C185  1.355 .      A
C184  C189  1.357 1_655  A
C185  C186  1.369 1_655  A
C186  C185  1.369 1_455  A
C186  C187  1.388 .      A
C187  C188  1.359 .      A
C188  C189  1.340 .      A
C189  C184  1.357 1_455  A
C189  N63   1.332 .      A
N63   C183  1.389 1_455  A
C192  N65   1.402 .      A
C192  N66   1.357 .      A
N65   C193  1.342 .      A
C193  C194  1.372 .      A
C193  C198  1.375 .      A
C194  C195  1.382 .      A
C195  C196  1.389 .      A
C196  C197  1.386 .      A
C197  C198  1.377 .      A
C198  N66   1.359 .      A
C201  N68   1.395 .      A
C201  N69   1.378 .      A
N68   C202  1.338 .      A
C202  C203  1.364 .      A
C202  C207  1.370 .      A
C203  C204  1.378 .      A
C204  C205  1.390 .      A
C205  C206  1.380 .      A
C206  C207  1.359 .      A
C207  N69   1.347 .      A
C210  N71   1.374 .      A
C210  N72   1.351 .      A
N71   C211  1.335 .      A
C211  C212  1.353 .      A
C211  C216  1.313 .      A
C212  C213  1.379 .      A
C213  C214  1.358 .      A
C214  C215  1.344 .      A
C215  C216  1.331 .      A
C216  N72   1.313 .      A
C219  N74   1.421 .      A
C219  N75   1.403 .      A
N74   C220  1.350 .      A
C220  C221  1.374 .      A
C220  C225  1.389 .      A
C221  C222  1.380 .      A
C222  C223  1.386 .      A
C223  C224  1.382 .      A
C224  C225  1.376 .      A
C225  N75   1.362 .      A
C228  N77   1.360 .      A
C228  N78   1.404 .      A
N77   C229  1.382 .      A
C229  C230  1.384 .      A
C229  C234  1.363 .      A
C230  C231  1.381 .      A
C231  C232  1.378 .      A
C232  C233  1.377 .      A
C233  C234  1.367 .      A
C234  N78   1.325 .      A
C237  N80   1.427 .      A
C237  N81   1.410 .      A
N80   C238  1.350 .      A
C238  C239  1.381 .      A
C238  C243  1.374 .      A
C239  C240  1.380 .      A
C240  C241  1.383 .      A
C241  C242  1.381 .      A
C242  C243  1.366 .      A
C243  N81   1.360 .      A
C246  N83   1.399 .      A
C246  N84   1.379 .      A
N83   C247  1.369 .      A
C247  C248  1.378 .      A
C247  C252  1.371 .      A
C248  C249  1.384 .      A
C249  C250  1.385 .      A
C250  C251  1.381 .      A
C251  C252  1.369 .      A
C252  N84   1.341 .      A
C255  N86   1.415 .      A
C255  N87   1.406 .      A
N86   C256  1.350 .      A
C256  C257  1.376 1_565  A
C256  C261  1.377 .      A
C257  C256  1.376 1_545  A
C257  C258  1.382 .      A
C258  C259  1.387 .      A
C259  C260  1.383 1_545  A
C260  C259  1.383 1_565  A
C260  C261  1.377 .      A
C261  N87   1.356 .      A
C264  N89   1.407 .      A
C264  N90   1.407 .      A
N89   C265  1.335 1_545  A
C265  N89   1.335 1_565  A
C265  C266  1.347 .      A
C265  C270  1.378 .      A
C266  C267  1.365 .      A
C267  C268  1.391 .      A
C268  C269  1.377 .      A
C269  C270  1.365 .      A
C270  N90   1.341 1_565  A
N90   C270  1.341 1_545  A
C273  N92   1.365 .      A
C273  N93   1.394 .      A
N92   C274  1.371 .      A
C274  C275  1.357 1_455  A
C274  C279  1.347 .      A
C275  C274  1.357 1_655  A
C275  C276  1.386 .      A
C276  C277  1.375 .      A
C277  C278  1.371 1_655  A
C278  C277  1.371 1_455  A
C278  C279  1.369 .      A
C279  N93   1.317 .      A
C282  N95   1.428 .      A
C282  N96   1.433 .      A
N95   C283  1.335 .      A
C283  C284  1.358 .      A
C283  C288  1.379 .      A
C284  C285  1.376 .      A
C285  C286  1.382 .      A
C286  C287  1.377 .      A
C287  C288  1.353 .      A
C288  N96   1.352 .      A
C291  N98   1.405 .      A
C291  N99   1.403 .      A
N98   C292  1.349 .      A
C292  C293  1.352 .      A
C292  C297  1.338 .      A
C293  C294  1.364 .      A
C294  C295  1.372 .      A
C295  C296  1.365 .      A
C296  C297  1.333 .      A
C297  N99   1.312 .      A
C300  N101  1.381 .      A
C300  N102  1.414 .      A
N101  C301  1.346 .      A
C301  C302  1.364 .      A
C301  C306  1.374 .      A
C302  C303  1.382 .      A
C303  C304  1.377 .      A
C304  C305  1.374 .      A
C305  C306  1.360 .      A
C306  N102  1.346 .      A
C309  N104  1.355 .      A
C309  N105  1.386 .      A
N104  C310  1.384 .      A
C310  C311  1.383 .      A
C310  C315  1.350 .      A
C311  C312  1.384 .      A
C312  C313  1.378 .      A
C313  C314  1.372 .      A
C314  C315  1.370 .      A
C315  N105  1.319 .      A
C318  N107  1.354 .      A
C318  N108  1.368 .      A
N107  C319  1.325 .      A
C319  C320  1.359 .      A
C319  C324  1.326 .      A
C320  C321  1.369 .      A
C321  C322  1.380 .      A
C322  C323  1.368 .      A
C323  C324  1.353 .      A
C324  N108  1.337 .      A
C327  N110  1.425 .      A
C327  N111  1.423 .      A
N110  C328  1.349 .      A
C328  C329  1.372 .      A
C328  C333  1.382 .      A
C329  C330  1.383 .      A
C330  C331  1.387 .      A
C331  C332  1.384 .      A
C332  C333  1.371 .      A
C333  N111  1.354 .      A
C336  N113  1.397 .      A
C336  N114  1.408 .      A
N113  C337  1.351 .      A
C337  C338  1.370 .      A
C337  C342  1.380 .      A
C338  C339  1.385 .      A
C339  C340  1.389 .      A
C340  C341  1.385 .      A
C341  C342  1.368 .      A
C342  N114  1.347 .      A
C345  N116  1.400 .      A
C345  N117  1.418 .      A
N116  C346  1.306 .      A
C346  C347  1.339 .      A
C346  C351  1.337 .      A
C347  C348  1.353 .      A
C348  C349  1.378 .      A
C349  C350  1.344 .      A
C350  C351  1.320 .      A
C351  N117  1.342 .      A
C354  N119  1.376 .      A
C354  N120  1.390 .      A
N119  C355  1.340 .      A
C355  C356  1.370 .      A
C355  C360  1.370 .      A
C356  C357  1.381 .      A
C357  C358  1.387 .      A
C358  C359  1.386 .      A
C359  C360  1.362 .      A
C360  N120  1.354 .      A
C363  N122  1.402 .      A
C363  N123  1.419 .      A
N122  C364  1.354 .      A
C364  C365  1.376 .      A
C364  C369  1.385 .      A
C365  C366  1.383 .      A
C366  C367  1.384 .      A
C367  C368  1.379 .      A
C368  C369  1.371 .      A
C369  N123  1.350 .      A
C372  N125  1.389 .      A
C372  N126  1.392 .      A
N125  C373  1.353 .      A
C373  C374  1.371 .      A
C373  C378  1.376 .      A
C374  C375  1.377 .      A
C375  C376  1.379 .      A
C376  C377  1.382 .      A
C377  C378  1.376 .      A
C378  N126  1.360 .      A
C381  N128  1.426 .      A
C381  N129  1.428 .      A
N128  C382  1.351 .      A
C382  C383  1.362 .      A
C382  C387  1.376 .      A
C383  C384  1.386 .      A
C384  C385  1.376 .      A
C385  C386  1.373 .      A
C386  C387  1.357 .      A
C387  N129  1.345 .      A
C390  N131  1.379 .      A
C390  N132  1.367 .      A
N131  C391  1.330 .      A
C391  C392  1.334 .      A
C391  C396  1.315 .      A
C392  C393  1.353 .      A
C393  C394  1.368 .      A
C394  C395  1.351 .      A
C395  C396  1.339 .      A
C396  N132  1.311 .      A
C399  N134  1.406 .      A
C399  N135  1.413 .      A
N134  C400  1.349 .      A
C400  C401  1.373 .      A
C400  C405  1.377 .      A
C401  C402  1.382 .      A
C402  C403  1.385 .      A
C403  C404  1.382 .      A
C404  C405  1.377 .      A
C405  N135  1.353 .      A
C408  N137  1.394 1_554  A
C408  N138  1.354 .      A
N137  C408  1.394 1_556  A
N137  C409  1.332 1_556  A
C409  N137  1.332 1_554  A
C409  C410  1.365 1_554  A
C409  C414  1.360 .      A
C410  C409  1.365 1_556  A
C410  C411  1.379 .      A
C411  C412  1.381 1_556  A
C412  C411  1.381 1_554  A
C412  C413  1.381 .      A
C413  C414  1.374 .      A
C414  N138  1.364 .      A
C417  N140  1.392 1_556  A
C417  N141  1.392 .      A
N140  C417  1.392 1_554  A
N140  C418  1.350 1_554  A
C418  N140  1.350 1_556  A
C418  C419  1.375 .      A
C418  C423  1.383 .      A
C419  C420  1.382 .      A
C420  C421  1.383 .      A
C421  C422  1.381 .      A
C422  C423  1.379 .      A
C423  N141  1.368 .      A
C426  N143  1.395 .      A
C426  N144  1.409 .      A
N143  C427  1.356 .      A
C427  C428  1.363 .      A
C427  C432  1.385 .      A
C428  C429  1.391 .      A
C429  C430  1.381 .      A
C430  C431  1.360 .      A
C431  C432  1.355 .      A
C432  N144  1.325 .      A
