data_str_m1_o12004_STF
_audit_creation_date              2015-10-01T06:33:35-0700
_symmetry_space_group_name_H-M    P1
_symmetry_Int_Tables_number       1
_space_group_crystal_system       triclinic
loop_
_symmetry_equiv_pos_as_xyz
  x,y,z
_cell_length_a                    15.7566493
_cell_length_b                    24.0879123
_cell_length_c                    24.2685743
_cell_angle_alpha                 74.0766697
_cell_angle_beta                  97.2360710
_cell_angle_gamma                 77.3573400
_cell_volume                      8471.3035605

loop_
_atom_site_label
_atom_site_type_symbol
_atom_site_description
_atom_site_fract_x
_atom_site_fract_y
_atom_site_fract_z
_atom_type_partial_charge
Zn1   Zn    Zn3+2 0.204247 0.795067 0.632008 0.000000
Zn2   Zn    Zn3+2 0.699029 0.876397 0.833402 0.000000
Zn3   Zn    Zn3+2 0.987497 0.595632 0.140837 0.000000
Zn4   Zn    Zn3+2 0.272018 0.700947 0.402933 0.000000
Zn5   Zn    Zn3+2 0.878101 0.705500 0.690147 0.000000
Zn6   Zn    Zn3+2 0.579544 0.698706 0.040437 0.000000
Zn7   Zn    Zn3+2 0.224331 0.781531 0.136106 0.000000
Zn8   Zn    Zn3+2 0.216037 0.299651 0.644783 0.000000
Zn9   Zn    Zn3+2 0.965716 0.278966 0.841921 0.000000
Zn10  Zn    Zn3+2 0.563192 0.397292 0.726047 0.000000
Zn11  Zn    Zn3+2 0.027630 0.522306 0.409912 0.000000
Zn12  Zn    Zn3+2 0.287271 0.013377 0.712011 0.000000
Zn13  Zn    Zn3+2 0.677491 0.585444 0.518315 0.000000
Zn14  Zn    Zn3+2 0.410989 0.576367 0.865937 0.000000
Zn15  Zn    Zn3+2 0.026126 0.995392 0.898618 0.000000
Zn16  Zn    Zn3+2 0.083434 0.487959 0.923029 0.000000
C1    C     C_3   0.130523 0.941456 0.458076 0.000000
N1    N     N_3   0.140205 0.878735 0.489303 0.000000
C2    C     C_3   0.200433 0.843746 0.463938 0.000000
C3    C     C_R   0.232308 0.779801 0.500675 0.000000
N2    N     N_R   0.240254 0.759822 0.561684 0.000000
C4    C     C_R   0.270436 0.700052 0.572310 0.000000
C5    C     C_R   0.294045 0.654670 0.624168 0.000000
C6    C     C_R   0.321389 0.596653 0.624255 0.000000
C7    C     C_R   0.318781 0.583337 0.573351 0.000000
C8    C     C_R   0.298704 0.628407 0.521855 0.000000
C9    C     C_R   0.276159 0.686099 0.522274 0.000000
N3    N     N_R   0.255777 0.734387 0.475337 0.000000
H1    H     H_    0.072178 0.970018 0.467277 0.000000
H2    H     H_    0.190521 0.954799 0.472315 0.000000
H3    H     H_    0.120405 0.948724 0.410307 0.000000
H4    H     H_    0.079448 0.870276 0.477630 0.000000
H5    H     H_    0.162831 0.845483 0.421646 0.000000
H6    H     H_    0.257923 0.862661 0.457905 0.000000
H7    H     H_    0.290623 0.661667 0.664218 0.000000
H8    H     H_    0.348673 0.560571 0.663882 0.000000
H9    H     H_    0.340337 0.537280 0.575271 0.000000
H10   H     H_    0.303393 0.617780 0.483167 0.000000
C10   C     C_3   0.107436 0.631105 0.590674 0.000000
N4    N     N_3   0.096323 0.690857 0.595932 0.000000
C11   C     C_3   0.097798 0.691256 0.656232 0.000000
C12   C     C_R   0.043941 0.748612 0.654342 0.000000
N5    N     N_R   0.072890 0.797327 0.628583 0.000000
C13   C     C_R   0.997958 0.836746 0.595487 0.000000
C14   C     C_R   0.989687 0.891373 0.555606 0.000000
C15   C     C_R   0.910645 0.918482 0.515716 0.000000
C16   C     C_R   0.843567 0.889622 0.516151 0.000000
C17   C     C_R   0.852279 0.836142 0.559197 0.000000
C18   C     C_R   0.927945 0.812245 0.601548 0.000000
N6    N     N_R   0.953701 0.757724 0.643097 0.000000
H11   H     H_    0.043529 0.620417 0.584315 0.000000
H12   H     H_    0.134278 0.629393 0.551073 0.000000
H13   H     H_    0.151720 0.597391 0.629629 0.000000
H14   H     H_    0.036090 0.717934 0.569583 0.000000
H15   H     H_    0.071407 0.658033 0.681728 0.000000
H16   H     H_    0.163888 0.686091 0.678736 0.000000
H17   H     H_    0.043382 0.912324 0.555107 0.000000
H18   H     H_    0.902596 0.960823 0.482659 0.000000
H19   H     H_    0.784539 0.908579 0.482147 0.000000
H20   H     H_    0.806796 0.810656 0.554333 0.000000
C19   C     C_3   0.822243 0.944395 0.627540 0.000000
N7    N     N_3   0.774631 0.905288 0.659643 0.000000
C20   C     C_3   0.834343 0.861307 0.711344 0.000000
C21   C     C_R   0.789264 0.815666 0.738161 0.000000
N8    N     N_R   0.738472 0.820196 0.780605 0.000000
C22   C     C_R   0.719712 0.766923 0.792642 0.000000
C23   C     C_R   0.672165 0.746028 0.831160 0.000000
C24   C     C_R   0.678228 0.685513 0.849351 0.000000
C25   C     C_R   0.731542 0.648338 0.826305 0.000000
C26   C     C_R   0.764060 0.672889 0.777838 0.000000
C27   C     C_R   0.758974 0.732271 0.763265 0.000000
N9    N     N_R   0.804233 0.760636 0.728022 0.000000
H21   H     H_    0.784433 0.967064 0.582162 0.000000
H22   H     H_    0.830705 0.978578 0.647893 0.000000
H23   H     H_    0.889155 0.919071 0.627903 0.000000
H24   H     H_    0.752947 0.882134 0.632616 0.000000
H25   H     H_    0.894414 0.837815 0.699677 0.000000
H26   H     H_    0.854929 0.883005 0.743211 0.000000
H27   H     H_    0.636082 0.776931 0.848148 0.000000
H28   H     H_    0.645637 0.666860 0.883754 0.000000
H29   H     H_    0.738910 0.601106 0.842081 0.000000
H30   H     H_    0.794170 0.646506 0.753012 0.000000
C28   C     C_3   0.916720 0.700381 0.989591 0.000000
N10   N     N_3   0.834857 0.747778 0.977614 0.000000
C29   C     C_3   0.759141 0.725814 0.962483 0.000000
C30   C     C_R   0.675221 0.774371 0.948695 0.000000
N11   N     N_R   0.605353 0.769264 0.978049 0.000000
C31   C     C_R   0.558191 0.826779 0.963596 0.000000
C32   C     C_R   0.482945 0.850195 0.981437 0.000000
C33   C     C_R   0.452515 0.911825 0.965382 0.000000
C34   C     C_R   0.502419 0.947839 0.939064 0.000000
C35   C     C_R   0.577362 0.922558 0.922045 0.000000
C36   C     C_R   0.597678 0.863136 0.928650 0.000000
N12   N     N_R   0.667326 0.831863 0.913392 0.000000
H31   H     H_    0.927214 0.668552 0.033531 0.000000
H32   H     H_    0.915031 0.674572 0.958651 0.000000
H33   H     H_    0.973721 0.720355 0.987898 0.000000
H34   H     H_    0.836978 0.783760 0.942796 0.000000
H35   H     H_    0.770667 0.707243 0.927303 0.000000
H36   H     H_    0.753391 0.689731 0.998974 0.000000
H37   H     H_    0.447230 0.822322 0.005784 0.000000
H38   H     H_    0.392347 0.932353 0.975857 0.000000
H39   H     H_    0.483778 0.995352 0.932987 0.000000
H40   H     H_    0.624667 0.946567 0.910690 0.000000
C37   C     C_3   0.861407 0.481668 0.166507 0.000000
N13   N     N_3   0.772651 0.520073 0.155123 0.000000
C38   C     C_3   0.774048 0.572037 0.173796 0.000000
C39   C     C_R   0.776154 0.625278 0.125071 0.000000
N14   N     N_R   0.700724 0.672052 0.098471 0.000000
C40   C     C_R   0.733006 0.720037 0.094362 0.000000
C41   C     C_R   0.686500 0.778733 0.083095 0.000000
C42   C     C_R   0.732889 0.821381 0.078904 0.000000
C43   C     C_R   0.822957 0.805422 0.080472 0.000000
C44   C     C_R   0.867039 0.746184 0.091984 0.000000
C45   C     C_R   0.822217 0.703720 0.105734 0.000000
N15   N     N_R   0.853702 0.643701 0.124400 0.000000
H41   H     H_    0.906500 0.508788 0.150580 0.000000
H42   H     H_    0.882171 0.457477 0.213991 0.000000
H43   H     H_    0.861543 0.448271 0.142856 0.000000
H44   H     H_    0.738315 0.495692 0.182356 0.000000
H45   H     H_    0.713780 0.584032 0.191783 0.000000
H46   H     H_    0.832663 0.560599 0.208687 0.000000
H47   H     H_    0.615815 0.791911 0.078702 0.000000
H48   H     H_    0.697882 0.867290 0.071761 0.000000
H49   H     H_    0.859291 0.838865 0.072360 0.000000
H50   H     H_    0.933356 0.734141 0.085610 0.000000
C46   C     C_3   0.011003 0.784103 0.244447 0.000000
N16   N     N_3   0.076682 0.751444 0.219784 0.000000
C47   C     C_3   0.030154 0.744896 0.167831 0.000000
C48   C     C_R   0.089975 0.702123 0.146382 0.000000
N17   N     N_R   0.174881 0.706797 0.144462 0.000000
C49   C     C_R   0.220182 0.648956 0.155055 0.000000
C50   C     C_R   0.310565 0.623671 0.166457 0.000000
C51   C     C_R   0.342553 0.562196 0.189976 0.000000
C52   C     C_R   0.284389 0.526696 0.198596 0.000000
C53   C     C_R   0.194056 0.552508 0.182108 0.000000
C54   C     C_R   0.163595 0.613565 0.159068 0.000000
N18   N     N_R   0.078819 0.646119 0.147615 0.000000
H51   H     H_    0.042483 0.809642 0.268602 0.000000
H52   H     H_    0.955598 0.815867 0.209605 0.000000
H53   H     H_    0.984318 0.751899 0.274128 0.000000
H54   H     H_    0.102268 0.708587 0.249779 0.000000
H55   H     H_    0.974863 0.727588 0.180959 0.000000
H56   H     H_    0.006815 0.788510 0.133099 0.000000
H57   H     H_    0.356795 0.650109 0.159684 0.000000
H58   H     H_    0.413290 0.541767 0.201137 0.000000
H59   H     H_    0.309647 0.478603 0.216773 0.000000
H60   H     H_    0.149362 0.524886 0.187040 0.000000
C55   C     C_3   0.462673 0.643885 0.272572 0.000000
N19   N     N_3   0.400249 0.676915 0.299106 0.000000
C56   C     C_3   0.310199 0.687360 0.268436 0.000000
C57   C     C_R   0.257594 0.744554 0.269382 0.000000
N20   N     N_R   0.253656 0.760019 0.319604 0.000000
C58   C     C_R   0.233568 0.820273 0.298535 0.000000
C59   C     C_R   0.243544 0.858953 0.329173 0.000000
C60   C     C_R   0.227672 0.919100 0.298676 0.000000
C61   C     C_R   0.206684 0.938874 0.238011 0.000000
C62   C     C_R   0.204952 0.898306 0.207370 0.000000
C63   C     C_R   0.218836 0.839084 0.238754 0.000000
N21   N     N_R   0.232446 0.791544 0.218697 0.000000
H61   H     H_    0.530215 0.644023 0.290800 0.000000
H62   H     H_    0.456425 0.597716 0.280049 0.000000
H63   H     H_    0.452456 0.665436 0.225505 0.000000
H64   H     H_    0.413180 0.718499 0.293339 0.000000
H65   H     H_    0.311000 0.695281 0.222409 0.000000
H66   H     H_    0.278621 0.651469 0.285808 0.000000
H67   H     H_    0.272785 0.841755 0.374668 0.000000
H68   H     H_    0.235630 0.950468 0.322086 0.000000
H69   H     H_    0.196756 0.985704 0.214591 0.000000
H70   H     H_    0.196112 0.912647 0.160483 0.000000
C64   C     C_3   0.186487 0.733687 0.021490 0.000000
N22   N     N_3   0.273994 0.691875 0.040143 0.000000
C65   C     C_3   0.341453 0.722979 0.026426 0.000000
C66   C     C_R   0.389180 0.735037 0.076934 0.000000
N23   N     N_R   0.349158 0.760700 0.115031 0.000000
C67   C     C_R   0.418989 0.767875 0.147832 0.000000
C68   C     C_R   0.418150 0.799023 0.187557 0.000000
C69   C     C_R   0.497845 0.797473 0.219403 0.000000
C70   C     C_R   0.575503 0.761503 0.214231 0.000000
C71   C     C_R   0.574980 0.732435 0.172494 0.000000
C72   C     C_R   0.496360 0.742265 0.134788 0.000000
N24   N     N_R   0.480722 0.724445 0.087027 0.000000
H71   H     H_    0.136645 0.710341 0.036776 0.000000
H72   H     H_    0.185652 0.771428 0.038446 0.000000
H73   H     H_    0.166781 0.749738 0.973982 0.000000
H74   H     H_    0.274346 0.665805 0.012301 0.000000
H75   H     H_    0.393276 0.692404 0.014811 0.000000
H76   H     H_    0.313664 0.763976 0.989295 0.000000
H77   H     H_    0.358638 0.827489 0.191406 0.000000
H78   H     H_    0.499381 0.822607 0.249909 0.000000
H79   H     H_    0.636719 0.757101 0.242427 0.000000
H80   H     H_    0.634343 0.701316 0.172390 0.000000
C73   C     C_3   0.257802 0.269287 0.893555 0.000000
N25   N     N_3   0.176123 0.301688 0.851251 0.000000
C74   C     C_3   0.193013 0.296431 0.795643 0.000000
C75   C     C_R   0.110462 0.304197 0.753437 0.000000
N26   N     N_R   0.028839 0.297385 0.767970 0.000000
C76   C     C_R   0.988196 0.291266 0.718630 0.000000
C77   C     C_R   0.908634 0.278014 0.709468 0.000000
C78   C     C_R   0.888374 0.258272 0.662589 0.000000
C79   C     C_R   0.944049 0.256996 0.623010 0.000000
C80   C     C_R   0.021670 0.274208 0.630819 0.000000
C81   C     C_R   0.041543 0.292466 0.678535 0.000000
N27   N     N_R   0.118083 0.303813 0.697202 0.000000
H81   H     H_    0.255806 0.282488 0.933794 0.000000
H82   H     H_    0.266360 0.220401 0.904657 0.000000
H83   H     H_    0.314458 0.279970 0.874460 0.000000
H84   H     H_    0.169431 0.346567 0.847562 0.000000
H85   H     H_    0.227168 0.330417 0.776595 0.000000
H86   H     H_    0.237887 0.252010 0.802465 0.000000
H87   H     H_    0.862792 0.282569 0.737589 0.000000
H88   H     H_    0.829111 0.243187 0.657189 0.000000
H89   H     H_    0.926754 0.242032 0.586050 0.000000
H90   H     H_    0.065167 0.273205 0.600186 0.000000
C82   C     C_3   0.211009 0.463302 0.614639 0.000000
N28   N     N_3   0.225911 0.424868 0.674083 0.000000
C83   C     C_3   0.318313 0.413039 0.701356 0.000000
C84   C     C_R   0.375275 0.358003 0.695535 0.000000
N29   N     N_R   0.467494 0.347685 0.707140 0.000000
C85   C     C_R   0.493218 0.294064 0.698182 0.000000
C86   C     C_R   0.578362 0.261122 0.702812 0.000000
C87   C     C_R   0.590332 0.213914 0.680024 0.000000
C88   C     C_R   0.518531 0.196417 0.659078 0.000000
C89   C     C_R   0.433917 0.225653 0.660919 0.000000
C90   C     C_R   0.421650 0.275170 0.679868 0.000000
N30   N     N_R   0.343955 0.313684 0.678397 0.000000
H91   H     H_    0.141181 0.471873 0.593464 0.000000
H92   H     H_    0.222227 0.506879 0.614363 0.000000
H93   H     H_    0.255590 0.441239 0.591113 0.000000
H94   H     H_    0.208494 0.385773 0.674001 0.000000
H95   H     H_    0.345117 0.450926 0.681204 0.000000
H96   H     H_    0.323074 0.408084 0.748498 0.000000
H97   H     H_    0.634968 0.274783 0.718227 0.000000
H98   H     H_    0.655629 0.191346 0.676687 0.000000
H99   H     H_    0.528733 0.159210 0.641694 0.000000
H100  H     H_    0.380305 0.210401 0.645075 0.000000
C91   C     C_3   0.972191 0.353846 0.478216 0.000000
N31   N     N_3   0.953343 0.413594 0.483936 0.000000
C92   C     C_3   0.007371 0.416062 0.536279 0.000000
C93   C     C_R   0.098281 0.410853 0.526265 0.000000
N32   N     N_R   0.109964 0.442806 0.472411 0.000000
C94   C     C_R   0.188720 0.409564 0.468859 0.000000
C95   C     C_R   0.228245 0.414267 0.420883 0.000000
C96   C     C_R   0.307131 0.372686 0.425957 0.000000
C97   C     C_R   0.345633 0.328056 0.478546 0.000000
C98   C     C_R   0.304667 0.323962 0.526091 0.000000
C99   C     C_R   0.225817 0.364791 0.520294 0.000000
N33   N     N_R   0.170944 0.363686 0.559002 0.000000
H101  H     H_    0.932177 0.355621 0.436455 0.000000
H102  H     H_    0.042598 0.337147 0.477291 0.000000
H103  H     H_    0.952824 0.323036 0.513870 0.000000
H104  H     H_    0.887408 0.424589 0.487113 0.000000
H105  H     H_    0.982941 0.460007 0.542474 0.000000
H106  H     H_    0.004189 0.381398 0.575189 0.000000
H107  H     H_    0.198915 0.448720 0.379935 0.000000
H108  H     H_    0.339096 0.375179 0.388795 0.000000
H109  H     H_    0.406860 0.295376 0.481983 0.000000
H110  H     H_    0.330484 0.287251 0.564979 0.000000
C100  C     C_3   0.316222 0.114890 0.848205 0.000000
N34   N     N_3   0.288939 0.105941 0.792465 0.000000
C101  C     C_3   0.260224 0.163845 0.747705 0.000000
C102  C     C_R   0.248151 0.159902 0.686620 0.000000
N35   N     N_R   0.252464 0.108037 0.670068 0.000000
C103  C     C_R   0.228426 0.131393 0.611333 0.000000
C104  C     C_R   0.204590 0.102891 0.572318 0.000000
C105  C     C_R   0.176058 0.135629 0.513875 0.000000
C106  C     C_R   0.167581 0.196583 0.495721 0.000000
C107  C     C_R   0.185370 0.225377 0.536083 0.000000
C108  C     C_R   0.216063 0.192099 0.593824 0.000000
N36   N     N_R   0.229278 0.211922 0.640392 0.000000
H111  H     H_    0.338853 0.070850 0.882809 0.000000
H112  H     H_    0.371019 0.136897 0.846914 0.000000
H113  H     H_    0.258770 0.142620 0.859063 0.000000
H114  H     H_    0.231573 0.092762 0.796815 0.000000
H115  H     H_    0.195890 0.188110 0.753838 0.000000
H116  H     H_    0.309066 0.189900 0.751992 0.000000
H117  H     H_    0.201180 0.057540 0.586611 0.000000
H118  H     H_    0.157050 0.113993 0.482528 0.000000
H119  H     H_    0.142759 0.222244 0.450148 0.000000
H120  H     H_    0.171423 0.272754 0.522181 0.000000
C109  C     C_3   0.749049 0.140771 0.796628 0.000000
N37   N     N_3   0.825104 0.127512 0.842859 0.000000
C110  C     C_3   0.891371 0.154033 0.817789 0.000000
C111  C     C_R   0.970474 0.141254 0.863686 0.000000
N38   N     N_R   0.002201 0.186780 0.875700 0.000000
C112  C     C_R   0.068951 0.156963 0.920951 0.000000
C113  C     C_R   0.126145 0.180941 0.947840 0.000000
C114  C     C_R   0.184815 0.144807 0.998011 0.000000
C115  C     C_R   0.186213 0.085305 0.018744 0.000000
C116  C     C_R   0.134293 0.060273 0.987101 0.000000
C117  C     C_R   0.075289 0.097242 0.937230 0.000000
N39   N     N_R   0.015363 0.084329 0.900452 0.000000
H121  H     H_    0.733108 0.098755 0.795349 0.000000
H122  H     H_    0.691304 0.169857 0.805145 0.000000
H123  H     H_    0.763113 0.163983 0.754202 0.000000
H124  H     H_    0.850710 0.081373 0.860327 0.000000
H125  H     H_    0.907401 0.141334 0.779711 0.000000
H126  H     H_    0.864418 0.201986 0.800204 0.000000
H127  H     H_    0.124419 0.226926 0.930867 0.000000
H128  H     H_    0.228280 0.163143 0.021746 0.000000
H129  H     H_    0.229506 0.058812 0.059905 0.000000
H130  H     H_    0.138067 0.014046 0.003484 0.000000
C118  C     C_3   0.838411 0.511472 0.797400 0.000000
N40   N     N_3   0.904994 0.468437 0.843646 0.000000
C119  C     C_3   0.954002 0.421767 0.824588 0.000000
C120  C     C_R   0.019192 0.382333 0.876668 0.000000
N41   N     N_R   0.053197 0.404318 0.920121 0.000000
C121  C     C_R   0.055202 0.360081 0.969049 0.000000
C122  C     C_R   0.071241 0.360664 0.025869 0.000000
C123  C     C_R   0.059407 0.313470 0.069163 0.000000
C124  C     C_R   0.028769 0.268221 0.055071 0.000000
C125  C     C_R   0.010784 0.268973 0.997519 0.000000
C126  C     C_R   0.027151 0.314501 0.955375 0.000000
N42   N     N_R   0.008879 0.325708 0.896929 0.000000
H131  H     H_    0.777917 0.519891 0.815422 0.000000
H132  H     H_    0.857853 0.552978 0.784630 0.000000
H133  H     H_    0.828678 0.493700 0.760645 0.000000
H134  H     H_    0.871274 0.448273 0.874166 0.000000
H135  H     H_    0.912326 0.395278 0.810849 0.000000
H136  H     H_    0.978029 0.437801 0.785048 0.000000
H137  H     H_    0.091194 0.396928 0.036880 0.000000
H138  H     H_    0.071743 0.312693 0.114242 0.000000
H139  H     H_    0.017226 0.232743 0.089252 0.000000
H140  H     H_    0.982719 0.235534 0.986242 0.000000
C127  C     C_3   0.725983 0.364889 0.926942 0.000000
N43   N     N_3   0.688791 0.394468 0.864921 0.000000
C128  C     C_3   0.760026 0.391961 0.832524 0.000000
C129  C     C_R   0.760279 0.350346 0.797910 0.000000
N44   N     N_R   0.825132 0.298722 0.826772 0.000000
C130  C     C_R   0.775236 0.262617 0.849900 0.000000
C131  C     C_R   0.798964 0.216424 0.901811 0.000000
C132  C     C_R   0.733026 0.191936 0.922740 0.000000
C133  C     C_R   0.645362 0.214552 0.892772 0.000000
C134  C     C_R   0.621941 0.263087 0.842201 0.000000
C135  C     C_R   0.688314 0.286603 0.822331 0.000000
N45   N     N_R   0.678524 0.340549 0.783471 0.000000
H141  H     H_    0.767359 0.390839 0.943692 0.000000
H142  H     H_    0.671090 0.363029 0.951210 0.000000
H143  H     H_    0.765782 0.318493 0.935171 0.000000
H144  H     H_    0.664859 0.439333 0.861669 0.000000
H145  H     H_    0.754914 0.435492 0.803916 0.000000
H146  H     H_    0.822215 0.373482 0.865321 0.000000
H147  H     H_    0.865572 0.201420 0.927293 0.000000
H148  H     H_    0.749646 0.155627 0.963408 0.000000
H149  H     H_    0.594677 0.195439 0.910229 0.000000
H150  H     H_    0.553301 0.283649 0.821162 0.000000
C136  C     C_3   0.512743 0.651589 0.579840 0.000000
N46   N     N_3   0.532564 0.596556 0.627310 0.000000
C137  C     C_3   0.517358 0.548108 0.606478 0.000000
C138  C     C_R   0.598925 0.501027 0.615485 0.000000
N47   N     N_R   0.604118 0.442145 0.646742 0.000000
C139  C     C_R   0.663316 0.412111 0.622603 0.000000
C140  C     C_R   0.664177 0.357895 0.615092 0.000000
C141  C     C_R   0.713746 0.338993 0.577500 0.000000
C142  C     C_R   0.765231 0.373203 0.550130 0.000000
C143  C     C_R   0.758695 0.429737 0.554818 0.000000
C144  C     C_R   0.700050 0.450021 0.586337 0.000000
N48   N     N_R   0.660078 0.507688 0.579584 0.000000
H151  H     H_    0.445296 0.662117 0.555033 0.000000
H152  H     H_    0.518104 0.688794 0.596891 0.000000
H153  H     H_    0.561018 0.647070 0.552115 0.000000
H154  H     H_    0.486286 0.603106 0.653214 0.000000
H155  H     H_    0.476862 0.524891 0.633552 0.000000
H156  H     H_    0.485951 0.564406 0.559743 0.000000
H157  H     H_    0.614711 0.336726 0.628299 0.000000
H158  H     H_    0.711017 0.297781 0.568565 0.000000
H159  H     H_    0.803384 0.357775 0.520821 0.000000
H160  H     H_    0.789642 0.460177 0.529237 0.000000
C145  C     C_3   0.443401 0.325351 0.914017 0.000000
N49   N     N_3   0.411881 0.383975 0.869842 0.000000
C146  C     C_3   0.488115 0.408292 0.866276 0.000000
C147  C     C_R   0.475714 0.463430 0.815259 0.000000
N50   N     N_R   0.520278 0.457682 0.770387 0.000000
C148  C     C_R   0.553804 0.505395 0.761060 0.000000
C149  C     C_R   0.624323 0.513147 0.735672 0.000000
C150  C     C_R   0.647519 0.565876 0.730497 0.000000
C151  C     C_R   0.607807 0.604912 0.756902 0.000000
C152  C     C_R   0.553606 0.589012 0.794865 0.000000
C153  C     C_R   0.523825 0.540717 0.792834 0.000000
N51   N     N_R   0.471370 0.517986 0.825808 0.000000
H161  H     H_    0.391398 0.317713 0.939679 0.000000
H162  H     H_    0.459282 0.290186 0.892782 0.000000
H163  H     H_    0.503231 0.322787 0.945042 0.000000
H164  H     H_    0.368818 0.409084 0.888390 0.000000
H165  H     H_    0.506735 0.419051 0.906909 0.000000
H166  H     H_    0.542891 0.373326 0.862113 0.000000
H167  H     H_    0.661786 0.479260 0.721211 0.000000
H168  H     H_    0.694996 0.578273 0.704832 0.000000
H169  H     H_    0.619709 0.647832 0.747206 0.000000
H170  H     H_    0.528505 0.617110 0.820075 0.000000
C154  C     C_3   0.821160 0.689553 0.262159 0.000000
N52   N     N_3   0.879052 0.629710 0.290388 0.000000
C155  C     C_3   0.958359 0.624097 0.265623 0.000000
C156  C     C_R   0.998609 0.560536 0.272886 0.000000
N53   N     N_R   0.021326 0.515826 0.325797 0.000000
C157  C     C_R   0.044286 0.466104 0.309279 0.000000
C158  C     C_R   0.064198 0.407225 0.343050 0.000000
C159  C     C_R   0.087446 0.363425 0.316663 0.000000
C160  C     C_R   0.089412 0.378910 0.257404 0.000000
C161  C     C_R   0.065137 0.438419 0.223352 0.000000
C162  C     C_R   0.040368 0.481078 0.250315 0.000000
N54   N     N_R   0.009994 0.540840 0.225551 0.000000
H171  H     H_    0.776498 0.700667 0.291583 0.000000
H172  H     H_    0.860187 0.722755 0.253035 0.000000
H173  H     H_    0.781059 0.690953 0.220821 0.000000
H174  H     H_    0.845086 0.600677 0.279436 0.000000
H175  H     H_    0.939675 0.647327 0.218517 0.000000
H176  H     H_    0.006639 0.642883 0.286446 0.000000
H177  H     H_    0.061203 0.395239 0.388564 0.000000
H178  H     H_    0.104355 0.316727 0.342442 0.000000
H179  H     H_    0.108206 0.344199 0.237523 0.000000
H180  H     H_    0.064204 0.450612 0.176952 0.000000
C163  C     C_3   0.345251 0.474017 0.496875 0.000000
N55   N     N_3   0.251003 0.505746 0.479515 0.000000
C164  C     C_3   0.238772 0.548791 0.422635 0.000000
C165  C     C_R   0.162818 0.599725 0.411171 0.000000
N56   N     N_R   0.076910 0.595829 0.407058 0.000000
C166  C     C_R   0.031848 0.653883 0.395657 0.000000
C167  C     C_R   0.941955 0.678924 0.384696 0.000000
C168  C     C_R   0.911409 0.739866 0.375776 0.000000
C169  C     C_R   0.970515 0.774647 0.378237 0.000000
C170  C     C_R   0.060711 0.749306 0.386768 0.000000
C171  C     C_R   0.088908 0.689194 0.394175 0.000000
N57   N     N_R   0.172773 0.656814 0.402162 0.000000
H181  H     H_    0.357841 0.435738 0.537158 0.000000
H182  H     H_    0.366949 0.456527 0.462006 0.000000
H183  H     H_    0.386135 0.504032 0.504682 0.000000
H184  H     H_    0.233743 0.529592 0.507985 0.000000
H185  H     H_    0.290547 0.570023 0.424973 0.000000
H186  H     H_    0.237674 0.528886 0.386818 0.000000
H187  H     H_    0.895846 0.652217 0.384342 0.000000
H188  H     H_    0.840908 0.760333 0.367854 0.000000
H189  H     H_    0.945813 0.821996 0.371721 0.000000
H190  H     H_    0.107046 0.776276 0.386208 0.000000
C172  C     C_3   0.890665 0.692302 0.512703 0.000000
N58   N     N_3   0.845877 0.650356 0.497430 0.000000
C173  C     C_3   0.908164 0.593371 0.503675 0.000000
C174  C     C_R   0.863114 0.562047 0.469943 0.000000
N59   N     N_R   0.772558 0.567551 0.463831 0.000000
C175  C     C_R   0.756737 0.552178 0.414411 0.000000
C176  C     C_R   0.678972 0.566151 0.375076 0.000000
C177  C     C_R   0.677763 0.540233 0.330679 0.000000
C178  C     C_R   0.755127 0.504903 0.323958 0.000000
C179  C     C_R   0.835015 0.501685 0.356777 0.000000
C180  C     C_R   0.833602 0.530172 0.398605 0.000000
N60   N     N_R   0.902608 0.538530 0.430557 0.000000
H191  H     H_    0.846606 0.738319 0.492827 0.000000
H192  H     H_    0.904328 0.682499 0.560631 0.000000
H193  H     H_    0.953028 0.690373 0.496131 0.000000
H194  H     H_    0.813028 0.669716 0.453918 0.000000
H195  H     H_    0.968927 0.599461 0.487867 0.000000
H196  H     H_    0.930311 0.564694 0.548780 0.000000
H197  H     H_    0.621587 0.598145 0.377240 0.000000
H198  H     H_    0.616548 0.546776 0.301292 0.000000
H199  H     H_    0.753548 0.482839 0.290785 0.000000
H200  H     H_    0.895393 0.475712 0.350773 0.000000
C181  C     C_3   0.036874 0.115294 0.648455 0.000000
N61   N     N_3   0.098244 0.108972 0.701366 0.000000
C182  C     C_3   0.068065 0.076064 0.750402 0.000000
C183  C     C_R   0.137144 0.024589 0.792882 0.000000
N62   N     N_R   0.214155 0.997047 0.778329 0.000000
C184  C     C_R   0.234946 0.942143 0.817372 0.000000
C185  C     C_R   0.284198 0.892315 0.809340 0.000000
C186  C     C_R   0.268517 0.838589 0.837483 0.000000
C187  C     C_R   0.215830 0.834475 0.878280 0.000000
C188  C     C_R   0.164612 0.884658 0.884865 0.000000
C189  C     C_R   0.175896 0.937917 0.854081 0.000000
N63   N     N_R   0.116049 0.989876 0.842539 0.000000
H201  H     H_    0.049443 0.148415 0.610891 0.000000
H202  H     H_    0.046426 0.072119 0.639354 0.000000
H203  H     H_    0.967247 0.132013 0.652451 0.000000
H204  H     H_    0.088313 0.151981 0.704838 0.000000
H205  H     H_    0.041816 0.107116 0.773693 0.000000
H206  H     H_    0.019554 0.056480 0.732009 0.000000
H207  H     H_    0.320695 0.896257 0.774728 0.000000
H208  H     H_    0.291486 0.799383 0.825104 0.000000
H209  H     H_    0.208938 0.791864 0.900460 0.000000
H210  H     H_    0.111311 0.881901 0.908369 0.000000
C190  C     C_3   0.571403 0.938541 0.664070 0.000000
N64   N     N_3   0.503323 0.907090 0.672621 0.000000
C191  C     C_3   0.497477 0.886320 0.733909 0.000000
C192  C     C_R   0.497866 0.934511 0.761054 0.000000
N65   N     N_R   0.576417 0.937541 0.791639 0.000000
C193  C     C_R   0.555945 0.994325 0.792792 0.000000
C194  C     C_R   0.608433 0.023302 0.817888 0.000000
C195  C     C_R   0.571951 0.081066 0.816191 0.000000
C196  C     C_R   0.493379 0.112777 0.778424 0.000000
C197  C     C_R   0.447526 0.084188 0.748077 0.000000
C198  C     C_R   0.471560 0.023373 0.764134 0.000000
N66   N     N_R   0.428798 0.986467 0.746082 0.000000
H211  H     H_    0.588038 0.940346 0.620678 0.000000
H212  H     H_    0.547550 0.985308 0.664372 0.000000
H213  H     H_    0.630927 0.913321 0.697861 0.000000
H214  H     H_    0.522405 0.870132 0.658504 0.000000
H215  H     H_    0.436505 0.871394 0.736808 0.000000
H216  H     H_    0.554891 0.848136 0.757145 0.000000
H217  H     H_    0.673480 0.001272 0.843095 0.000000
H218  H     H_    0.607487 0.102647 0.841058 0.000000
H219  H     H_    0.469945 0.160023 0.771943 0.000000
H220  H     H_    0.401220 0.108924 0.709271 0.000000
C199  C     C_3   0.014116 0.935549 0.729082 0.000000
N67   N     N_3   0.106435 0.929756 0.726084 0.000000
C200  C     C_3   0.115571 0.932454 0.667253 0.000000
C201  C     C_R   0.210127 0.916518 0.662242 0.000000
N68   N     N_R   0.260371 0.957800 0.659835 0.000000
C202  C     C_R   0.308804 0.947223 0.619939 0.000000
C203  C     C_R   0.358327 0.982151 0.591639 0.000000
C204  C     C_R   0.398540 0.964742 0.549235 0.000000
C205  C     C_R   0.391330 0.912396 0.537594 0.000000
C206  C     C_R   0.340186 0.878315 0.566004 0.000000
C207  C     C_R   0.296217 0.898320 0.605047 0.000000
N69   N     N_R   0.235332 0.876433 0.631979 0.000000
H221  H     H_    0.973255 0.979212 0.698694 0.000000
H222  H     H_    0.992960 0.898742 0.717618 0.000000
H223  H     H_    0.007276 0.931132 0.774661 0.000000
H224  H     H_    0.138457 0.886309 0.751317 0.000000
H225  H     H_    0.084250 0.900435 0.653974 0.000000
H226  H     H_    0.082345 0.977773 0.636875 0.000000
H227  H     H_    0.367350 0.021249 0.602667 0.000000
H228  H     H_    0.438311 0.991009 0.526412 0.000000
H229  H     H_    0.425283 0.898452 0.505662 0.000000
H230  H     H_    0.334876 0.837711 0.557238 0.000000
C208  C     C_3   0.471696 0.816728 0.367914 0.000000
N70   N     N_3   0.484515 0.752626 0.379930 0.000000
C209  C     C_3   0.459279 0.727165 0.435216 0.000000
C210  C     C_R   0.470171 0.662177 0.445082 0.000000
N71   N     N_R   0.401191 0.645890 0.419738 0.000000
C211  C     C_R   0.441234 0.590444 0.418304 0.000000
C212  C     C_R   0.415588 0.557632 0.383346 0.000000
C213  C     C_R   0.469185 0.502055 0.388894 0.000000
C214  C     C_R   0.549570 0.480464 0.427174 0.000000
C215  C     C_R   0.578117 0.516500 0.456496 0.000000
C216  C     C_R   0.524883 0.572030 0.449665 0.000000
N72   N     N_R   0.548678 0.616404 0.466420 0.000000
H231  H     H_    0.535649 0.827715 0.363139 0.000000
H232  H     H_    0.423866 0.840735 0.326158 0.000000
H233  H     H_    0.445515 0.831701 0.403225 0.000000
H234  H     H_    0.550798 0.732504 0.381464 0.000000
H235  H     H_    0.493346 0.736597 0.472214 0.000000
H236  H     H_    0.388158 0.748180 0.430541 0.000000
H237  H     H_    0.354787 0.573427 0.351869 0.000000
H238  H     H_    0.448462 0.475798 0.362723 0.000000
H239  H     H_    0.593145 0.437808 0.430277 0.000000
H240  H     H_    0.645501 0.505395 0.476246 0.000000
C217  C     C_3   0.875526 0.466002 0.653701 0.000000
N73   N     N_3   0.803358 0.520297 0.637726 0.000000
C218  C     C_3   0.841114 0.567452 0.645759 0.000000
C219  C     C_R   0.781779 0.627952 0.616719 0.000000
N74   N     N_R   0.789691 0.677786 0.634071 0.000000
C220  C     C_R   0.723216 0.720909 0.595156 0.000000
C221  C     C_R   0.688127 0.778137 0.595639 0.000000
C222  C     C_R   0.632490 0.818164 0.545337 0.000000
C223  C     C_R   0.617482 0.800458 0.496127 0.000000
C224  C     C_R   0.646083 0.740679 0.499566 0.000000
C225  C     C_R   0.689447 0.700680 0.552387 0.000000
N75   N     N_R   0.719963 0.640734 0.566061 0.000000
H241  H     H_    0.927264 0.465914 0.688701 0.000000
H242  H     H_    0.850364 0.426319 0.670211 0.000000
H243  H     H_    0.904690 0.463182 0.615217 0.000000
H244  H     H_    0.763110 0.512498 0.668001 0.000000
H245  H     H_    0.857119 0.562394 0.691974 0.000000
H246  H     H_    0.898986 0.563840 0.626417 0.000000
H247  H     H_    0.707306 0.793315 0.631649 0.000000
H248  H     H_    0.607658 0.864538 0.542713 0.000000
H249  H     H_    0.582936 0.833879 0.455399 0.000000
H250  H     H_    0.637741 0.725741 0.461951 0.000000
C226  C     C_3   0.514362 0.755284 0.690731 0.000000
N76   N     N_3   0.473304 0.725747 0.736375 0.000000
C227  C     C_3   0.412371 0.698675 0.710354 0.000000
C228  C     C_R   0.339184 0.696079 0.742371 0.000000
N77   N     N_R   0.341101 0.659580 0.798683 0.000000
C229  C     C_R   0.265192 0.689019 0.809487 0.000000
C230  C     C_R   0.235561 0.676592 0.860981 0.000000
C231  C     C_R   0.158105 0.714237 0.863545 0.000000
C232  C     C_R   0.115217 0.764551 0.816140 0.000000
C233  C     C_R   0.141539 0.772824 0.763326 0.000000
C234  C     C_R   0.217801 0.734653 0.761366 0.000000
N78   N     N_R   0.260701 0.738659 0.716752 0.000000
H251  H     H_    0.464365 0.793997 0.658790 0.000000
H252  H     H_    0.568656 0.770182 0.710575 0.000000
H253  H     H_    0.543170 0.724096 0.668169 0.000000
H254  H     H_    0.433959 0.759846 0.747817 0.000000
H255  H     H_    0.382768 0.728328 0.665186 0.000000
H256  H     H_    0.443239 0.654947 0.707434 0.000000
H257  H     H_    0.273495 0.640782 0.899312 0.000000
H258  H     H_    0.135263 0.706692 0.904257 0.000000
H259  H     H_    0.061278 0.798199 0.820266 0.000000
H260  H     H_    0.106307 0.810468 0.726386 0.000000
C235  C     C_3   0.255319 0.548140 0.742563 0.000000
N79   N     N_3   0.241236 0.516983 0.798382 0.000000
C236  C     C_3   0.219515 0.561057 0.827515 0.000000
C237  C     C_R   0.247851 0.532088 0.890002 0.000000
N80   N     N_R   0.211582 0.489941 0.922316 0.000000
C238  C     C_R   0.280480 0.455207 0.964750 0.000000
C239  C     C_R   0.283679 0.402551 0.006265 0.000000
C240  C     C_R   0.361014 0.374345 0.047494 0.000000
C241  C     C_R   0.431504 0.400117 0.046901 0.000000
C242  C     C_R   0.426930 0.452471 0.003486 0.000000
C243  C     C_R   0.351939 0.478254 0.960718 0.000000
N81   N     N_R   0.333417 0.527512 0.912791 0.000000
H261  H     H_    0.251827 0.520437 0.713579 0.000000
H262  H     H_    0.202895 0.589711 0.724271 0.000000
H263  H     H_    0.320564 0.557939 0.748202 0.000000
H264  H     H_    0.302360 0.488732 0.820566 0.000000
H265  H     H_    0.264138 0.587623 0.816848 0.000000
H266  H     H_    0.152008 0.590783 0.813033 0.000000
H267  H     H_    0.228104 0.383480 0.006453 0.000000
H268  H     H_    0.365617 0.333139 0.081233 0.000000
H269  H     H_    0.490086 0.379645 0.081147 0.000000
H270  H     H_    0.477001 0.474616 0.007144 0.000000
C244  C     C_3   0.476795 0.782280 0.855892 0.000000
N82   N     N_3   0.455749 0.755812 0.911876 0.000000
C245  C     C_3   0.422388 0.705912 0.907077 0.000000
C246  C     C_R   0.487359 0.649018 0.942058 0.000000
N83   N     N_R   0.493947 0.598186 0.925236 0.000000
C247  C     C_R   0.559155 0.558064 0.967097 0.000000
C248  C     C_R   0.601397 0.501155 0.969151 0.000000
C249  C     C_R   0.653991 0.463951 0.021942 0.000000
C250  C     C_R   0.660126 0.484427 0.070098 0.000000
C251  C     C_R   0.624997 0.544539 0.064084 0.000000
C252  C     C_R   0.581217 0.581386 0.010325 0.000000
N84   N     N_R   0.543277 0.640690 0.994449 0.000000
H271  H     H_    0.518324 0.746830 0.843719 0.000000
H272  H     H_    0.420148 0.800522 0.820055 0.000000
H273  H     H_    0.505251 0.819824 0.857155 0.000000
H274  H     H_    0.405919 0.787049 0.919826 0.000000
H275  H     H_    0.358093 0.709352 0.920868 0.000000
H276  H     H_    0.412306 0.706426 0.861470 0.000000
H277  H     H_    0.588590 0.484608 0.932796 0.000000
H278  H     H_    0.683980 0.417503 0.027169 0.000000
H279  H     H_    0.692621 0.452636 0.112314 0.000000
H280  H     H_    0.624069 0.562002 0.100385 0.000000
C253  C     C_3   0.749330 0.970268 0.002543 0.000000
N85   N     N_3   0.777669 0.974783 0.947182 0.000000
C254  C     C_3   0.836789 0.918299 0.948555 0.000000
C255  C     C_R   0.858950 0.926898 0.889666 0.000000
N86   N     N_R   0.798782 0.921050 0.845648 0.000000
C256  C     C_R   0.808307 0.962037 0.798421 0.000000
C257  C     C_R   0.750441 0.986995 0.745492 0.000000
C258  C     C_R   0.760386 0.038257 0.706967 0.000000
C259  C     C_R   0.831326 0.060653 0.720359 0.000000
C260  C     C_R   0.887535 0.034277 0.774353 0.000000
C261  C     C_R   0.873700 0.986884 0.812402 0.000000
N87   N     N_R   0.910974 0.965562 0.869335 0.000000
H281  H     H_    0.735302 0.015030 0.008847 0.000000
H282  H     H_    0.687496 0.955772 0.001784 0.000000
H283  H     H_    0.801236 0.938493 0.039163 0.000000
H284  H     H_    0.811330 0.007933 0.939288 0.000000
H285  H     H_    0.897673 0.905146 0.982068 0.000000
H286  H     H_    0.801503 0.882794 0.957612 0.000000
H287  H     H_    0.695699 0.969647 0.735482 0.000000
H288  H     H_    0.713948 0.060035 0.665800 0.000000
H289  H     H_    0.839379 0.100565 0.690190 0.000000
H290  H     H_    0.937145 0.051467 0.791426 0.000000
C262  C     C_3   0.307950 0.946279 0.062144 0.000000
N88   N     N_3   0.306511 0.888423 0.055791 0.000000
C263  C     C_3   0.243296 0.892739 0.004022 0.000000
C264  C     C_R   0.153026 0.891271 0.016662 0.000000
N89   N     N_R   0.079008 0.936985 0.984152 0.000000
C265  C     C_R   0.029059 0.940826 0.024559 0.000000
C266  C     C_R   0.961164 0.989115 0.021202 0.000000
C267  C     C_R   0.928071 0.990130 0.071140 0.000000
C268  C     C_R   0.962341 0.943020 0.122587 0.000000
C269  C     C_R   0.032032 0.895515 0.125107 0.000000
C270  C     C_R   0.065077 0.895388 0.075579 0.000000
N90   N     N_R   0.141950 0.860248 0.071356 0.000000
H291  H     H_    0.371269 0.941591 0.091003 0.000000
H292  H     H_    0.303155 0.980152 0.019824 0.000000
H293  H     H_    0.253308 0.960228 0.083868 0.000000
H294  H     H_    0.286513 0.867315 0.093078 0.000000
H295  H     H_    0.237202 0.934497 0.968582 0.000000
H296  H     H_    0.269401 0.854896 0.988686 0.000000
H297  H     H_    0.937532 0.026794 0.981818 0.000000
H298  H     H_    0.875869 0.028083 0.070260 0.000000
H299  H     H_    0.936830 0.944609 0.161601 0.000000
H300  H     H_    0.063303 0.861990 0.165801 0.000000
C271  C     C_3   0.299889 0.548321 0.058330 0.000000
N91   N     N_3   0.206060 0.567361 0.059478 0.000000
C272  C     C_3   0.172650 0.514757 0.068298 0.000000
C273  C     C_R   0.076724 0.530615 0.044047 0.000000
N92   N     N_R   0.008361 0.553566 0.070359 0.000000
C274  C     C_R   0.938138 0.547389 0.035742 0.000000
C275  C     C_R   0.850141 0.571526 0.029200 0.000000
C276  C     C_R   0.790164 0.563567 0.987576 0.000000
C277  C     C_R   0.817923 0.526901 0.955395 0.000000
C278  C     C_R   0.907031 0.507874 0.958421 0.000000
C279  C     C_R   0.963294 0.522083 0.995390 0.000000
N93   N     N_R   0.048661 0.513973 0.995699 0.000000
H301  H     H_    0.337515 0.573862 0.078191 0.000000
H302  H     H_    0.328513 0.500281 0.083424 0.000000
H303  H     H_    0.307716 0.558226 0.012440 0.000000
H304  H     H_    0.174234 0.596690 0.018037 0.000000
H305  H     H_    0.204201 0.487043 0.043826 0.000000
H306  H     H_    0.188127 0.486646 0.114482 0.000000
H307  H     H_    0.829632 0.603879 0.047713 0.000000
H308  H     H_    0.722645 0.589179 0.977672 0.000000
H309  H     H_    0.771063 0.517958 0.924699 0.000000
H310  H     H_    0.935126 0.483080 0.932999 0.000000
C280  C     C_3   0.930469 0.751562 0.854554 0.000000
N94   N     N_3   0.942138 0.711669 0.819385 0.000000
C281  C     C_3   0.957189 0.650943 0.856618 0.000000
C282  C     C_R   0.973439 0.610479 0.821012 0.000000
N95   N     N_R   0.957224 0.629410 0.760144 0.000000
C283  C     C_R   0.001659 0.579862 0.750056 0.000000
C284  C     C_R   0.014618 0.572860 0.698179 0.000000
C285  C     C_R   0.062965 0.518245 0.697040 0.000000
C286  C     C_R   0.103580 0.473136 0.748745 0.000000
C287  C     C_R   0.094627 0.482452 0.801355 0.000000
C288  C     C_R   0.038609 0.534800 0.800249 0.000000
N96   N     N_R   0.021388 0.551581 0.846437 0.000000
H311  H     H_    0.924346 0.797963 0.827975 0.000000
H312  H     H_    0.868416 0.750910 0.870293 0.000000
H313  H     H_    0.986914 0.737771 0.891500 0.000000
H314  H     H_    0.996222 0.714536 0.799500 0.000000
H315  H     H_    0.016896 0.639295 0.891354 0.000000
H316  H     H_    0.899299 0.645285 0.876780 0.000000
H317  H     H_    0.982878 0.609350 0.659217 0.000000
H318  H     H_    0.067402 0.510942 0.655639 0.000000
H319  H     H_    0.140333 0.429985 0.749100 0.000000
H320  H     H_    0.130932 0.449147 0.841653 0.000000

loop_
_geom_bond_atom_site_label_1
_geom_bond_atom_site_label_2
_geom_bond_distance
_geom_bond_site_symmetry_2
_ccdc_geom_bond_type
Zn1   N2    2.187 .      S
Zn1   N5    2.049 .      S
Zn1   N69   2.122 .      S
Zn1   N78   2.084 .      S
Zn2   N8    2.155 .      S
Zn2   N12   2.122 .      S
Zn2   N65   2.091 .      S
Zn2   N86   2.124 .      S
Zn3   N15   2.100 .      S
Zn3   N18   2.096 1_655  S
Zn3   N54   2.054 1_655  S
Zn3   N92   2.238 1_655  S
Zn4   N3    2.145 .      S
Zn4   N20   2.072 .      S
Zn4   N57   2.075 .      S
Zn4   N71   2.093 .      S
Zn5   N6    2.125 .      S
Zn5   N9    2.056 .      S
Zn5   N74   2.160 .      S
Zn5   N95   2.135 .      S
Zn6   N11   2.096 1_554  S
Zn6   N14   2.081 .      S
Zn6   N24   2.120 .      S
Zn6   N84   2.138 1_554  S
Zn7   N17   2.084 .      S
Zn7   N21   2.075 .      S
Zn7   N23   2.084 .      S
Zn7   N90   2.127 .      S
Zn8   N27   2.123 .      S
Zn8   N30   2.209 .      S
Zn8   N33   2.146 .      S
Zn8   N36   2.111 .      S
Zn9   N26   2.148 1_655  S
Zn9   N38   2.063 1_655  S
Zn9   N42   2.108 1_655  S
Zn9   N44   2.123 .      S
Zn10  N29   2.197 .      S
Zn10  N45   2.084 .      S
Zn10  N47   2.183 .      S
Zn10  N50   2.084 .      S
Zn11  N32   2.115 .      S
Zn11  N53   2.081 .      S
Zn11  N56   2.072 .      S
Zn11  N60   2.074 1_455  S
Zn12  N35   2.139 .      S
Zn12  N62   2.095 1_545  S
Zn12  N66   2.165 1_545  S
Zn12  N68   2.149 1_545  S
Zn13  N48   2.143 .      S
Zn13  N59   2.170 .      S
Zn13  N72   2.107 .      S
Zn13  N75   2.146 .      S
Zn14  N51   2.057 .      S
Zn14  N77   2.163 .      S
Zn14  N81   2.102 .      S
Zn14  N83   2.073 .      S
Zn15  N39   2.125 1_565  S
Zn15  N63   2.093 .      S
Zn15  N87   2.200 1_455  S
Zn15  N89   2.105 .      S
Zn16  N41   2.187 .      S
Zn16  N80   2.032 .      S
Zn16  N93   2.122 .      S
Zn16  N96   2.021 .      S
C1    N1    1.457 .      S
C1    H1    1.108 .      S
C1    H2    1.108 .      S
C1    H3    1.109 .      S
N1    C2    1.439 .      S
N1    H4    1.043 .      S
C2    C3    1.488 .      S
C2    H5    1.104 .      S
C2    H6    1.108 .      S
C5    H7    1.037 .      S
C6    H8    1.067 .      S
C7    H9    1.073 .      S
C8    H10   1.046 .      S
C10   N4    1.454 .      S
C10   H11   1.096 .      S
C10   H12   1.105 .      S
C10   H13   1.098 .      S
N4    C11   1.463 .      S
N4    H14   1.040 .      S
C11   C12   1.440 .      S
C11   H15   1.065 .      S
C11   H16   1.077 .      S
C14   H17   1.076 1_655  S
C15   H18   1.081 .      S
C16   H19   1.081 .      S
C17   H20   1.056 .      S
H17   C14   1.076 1_455  S
C19   N7    1.453 .      S
C19   H21   1.108 .      S
C19   H22   1.093 .      S
C19   H23   1.094 .      S
N7    C20   1.456 .      S
N7    H24   1.042 .      S
C20   C21   1.484 .      S
C20   H25   1.103 .      S
C20   H26   1.100 .      S
C23   H27   1.044 .      S
C24   H28   1.080 .      S
C25   H29   1.071 .      S
C26   H30   1.069 .      S
C28   N10   1.460 .      S
C28   H31   1.097 1_556  S
C28   H32   1.100 .      S
C28   H33   1.108 .      S
N10   C29   1.453 .      S
N10   H34   1.041 .      S
C29   C30   1.492 .      S
C29   H35   1.084 .      S
C29   H36   1.086 .      S
N11   Zn6   2.096 1_556  S
C32   H37   1.071 1_556  S
C33   H38   1.064 .      S
C34   H39   1.080 .      S
C35   H40   1.058 .      S
H31   C28   1.097 1_554  S
H37   C32   1.071 1_554  S
C37   N13   1.444 .      S
C37   H41   1.102 .      S
C37   H42   1.108 .      S
C37   H43   1.109 .      S
N13   C38   1.447 .      S
N13   H44   1.044 .      S
C38   C39   1.497 .      S
C38   H45   1.109 .      S
C38   H46   1.100 .      S
C41   H47   1.072 .      S
C42   H48   1.077 .      S
C43   H49   1.076 .      S
C44   H50   1.064 .      S
C46   N16   1.451 .      S
C46   H51   1.107 .      S
C46   H52   1.109 1_455  S
C46   H53   1.100 1_455  S
N16   C47   1.442 .      S
N16   H54   1.044 .      S
C47   C48   1.488 .      S
C47   H55   1.091 1_455  S
C47   H56   1.103 .      S
C50   H57   1.067 .      S
C51   H58   1.081 .      S
C52   H59   1.081 .      S
C53   H60   1.066 .      S
N18   Zn3   2.096 1_455  S
H52   C46   1.109 1_655  S
H53   C46   1.100 1_655  S
H55   C47   1.091 1_655  S
C55   N19   1.454 .      S
C55   H61   1.101 .      S
C55   H62   1.105 .      S
C55   H63   1.092 .      S
N19   C56   1.451 .      S
N19   H64   1.041 .      S
C56   C57   1.452 .      S
C56   H65   1.083 .      S
C56   H66   1.102 .      S
C59   H67   1.068 .      S
C60   H68   1.081 .      S
C61   H69   1.081 .      S
C62   H70   1.076 .      S
C64   N22   1.451 .      S
C64   H71   1.106 .      S
C64   H72   1.094 .      S
C64   H73   1.090 1_554  S
N22   C65   1.450 .      S
N22   H74   1.041 .      S
C65   C66   1.487 .      S
C65   H75   1.094 .      S
C65   H76   1.096 1_554  S
C68   H77   1.065 .      S
C69   H78   1.078 .      S
C70   H79   1.077 .      S
C71   H80   1.064 .      S
H73   C64   1.090 1_556  S
H76   C65   1.096 1_556  S
C73   N25   1.452 .      S
C73   H81   1.109 .      S
C73   H82   1.107 .      S
C73   H83   1.103 .      S
N25   C74   1.441 .      S
N25   H84   1.040 .      S
C74   C75   1.493 .      S
C74   H85   1.105 .      S
C74   H86   1.102 .      S
N26   Zn9   2.148 1_455  S
C77   H87   1.063 .      S
C78   H88   1.079 .      S
C79   H89   1.081 .      S
C80   H90   1.074 .      S
C82   N28   1.442 .      S
C82   H91   1.103 .      S
C82   H92   1.100 .      S
C82   H93   1.098 .      S
N28   C83   1.453 .      S
N28   H94   1.037 .      S
C83   C84   1.482 .      S
C83   H95   1.107 .      S
C83   H96   1.108 .      S
C86   H97   1.075 .      S
C87   H98   1.077 .      S
C88   H99   1.081 .      S
C89   H100  1.062 .      S
C91   N31   1.453 .      S
C91   H101  1.109 .      S
C91   H102  1.099 1_655  S
C91   H103  1.098 .      S
N31   C92   1.461 1_655  S
N31   H104  1.033 .      S
C92   N31   1.461 1_455  S
C92   C93   1.467 .      S
C92   H105  1.102 1_455  S
C92   H106  1.090 .      S
C95   H107  1.074 .      S
C96   H108  1.081 .      S
C97   H109  1.081 .      S
C98   H110  1.061 .      S
H102  C91   1.099 1_455  S
H105  C92   1.102 1_655  S
C100  N34   1.454 .      S
C100  H111  1.108 .      S
C100  H112  1.107 .      S
C100  H113  1.108 .      S
N34   C101  1.449 .      S
N34   H114  1.030 .      S
C101  C102  1.502 .      S
C101  H115  1.104 .      S
C101  H116  1.106 .      S
C104  H117  1.067 .      S
C105  H118  1.081 .      S
C106  H119  1.081 .      S
C107  H120  1.061 .      S
C109  N37   1.447 .      S
C109  H121  1.102 .      S
C109  H122  1.100 .      S
C109  H123  1.103 .      S
N37   C110  1.452 .      S
N37   H124  1.039 .      S
C110  C111  1.478 .      S
C110  H125  1.092 .      S
C110  H126  1.080 .      S
N38   Zn9   2.063 1_455  S
C113  H127  1.063 .      S
C114  H128  1.081 1_556  S
C115  H129  1.076 .      S
C116  H130  1.060 1_556  S
N39   Zn15  2.125 1_545  S
H128  C114  1.081 1_554  S
H130  C116  1.060 1_554  S
C118  N40   1.423 .      S
C118  H131  1.100 .      S
C118  H132  1.085 .      S
C118  H133  1.098 .      S
N40   C119  1.439 .      S
N40   H134  1.040 .      S
C119  C120  1.464 1_655  S
C119  H135  1.093 .      S
C119  H136  1.080 .      S
C120  C119  1.464 1_455  S
C122  H137  1.077 .      S
C123  H138  1.081 .      S
C124  H139  1.081 .      S
C125  H140  1.080 1_455  S
N42   Zn9   2.108 1_455  S
H140  C125  1.080 1_655  S
C127  N43   1.457 .      S
C127  H141  1.110 .      S
C127  H142  1.108 .      S
C127  H143  1.105 .      S
N43   C128  1.449 .      S
N43   H144  1.041 .      S
C128  C129  1.474 .      S
C128  H145  1.067 .      S
C128  H146  1.100 .      S
C131  H147  1.078 .      S
C132  H148  1.081 .      S
C133  H149  1.081 .      S
C134  H150  1.079 .      S
C136  N46   1.440 .      S
C136  H151  1.092 .      S
C136  H152  1.100 .      S
C136  H153  1.084 .      S
N46   C137  1.446 .      S
N46   H154  1.035 .      S
C137  C138  1.463 .      S
C137  H155  1.101 .      S
C137  H156  1.102 .      S
C140  H157  1.057 .      S
C141  H158  1.081 .      S
C142  H159  1.077 .      S
C143  H160  1.069 .      S
C145  N49   1.455 .      S
C145  H161  1.107 .      S
C145  H162  1.107 .      S
C145  H163  1.109 .      S
N49   C146  1.449 .      S
N49   H164  1.037 .      S
C146  C147  1.503 .      S
C146  H165  1.107 .      S
C146  H166  1.102 .      S
C149  H167  1.066 .      S
C150  H168  1.072 .      S
C151  H169  1.059 .      S
C152  H170  1.077 .      S
C154  N52   1.451 .      S
C154  H171  1.107 .      S
C154  H172  1.104 .      S
C154  H173  1.104 .      S
N52   C155  1.449 .      S
N52   H174  1.037 .      S
C155  C156  1.475 .      S
C155  H175  1.095 .      S
C155  H176  1.104 1_655  S
C158  H177  1.072 .      S
C159  H178  1.081 .      S
C160  H179  1.081 .      S
C161  H180  1.080 .      S
N54   Zn3   2.054 1_455  S
H176  C155  1.104 1_455  S
C163  N55   1.461 .      S
C163  H181  1.105 .      S
C163  H182  1.103 .      S
C163  H183  1.105 .      S
N55   C164  1.441 .      S
N55   H184  1.038 .      S
C164  C165  1.449 .      S
C164  H185  1.057 .      S
C164  H186  1.102 .      S
C167  H187  1.071 .      S
C168  H188  1.081 .      S
C169  H189  1.081 .      S
C170  H190  1.077 .      S
C172  N58   1.452 .      S
C172  H191  1.108 .      S
C172  H192  1.104 .      S
C172  H193  1.104 .      S
N58   C173  1.459 .      S
N58   H194  1.043 .      S
C173  C174  1.473 .      S
C173  H195  1.099 .      S
C173  H196  1.087 .      S
C176  H197  1.069 .      S
C177  H198  1.078 .      S
C178  H199  1.080 .      S
C179  H200  1.069 .      S
N60   Zn11  2.074 1_655  S
C181  N61   1.457 .      S
C181  H201  1.106 .      S
C181  H202  1.104 .      S
C181  H203  1.109 1_455  S
N61   C182  1.435 .      S
N61   H204  1.042 .      S
C182  C183  1.487 .      S
C182  H205  1.098 .      S
C182  H206  1.092 .      S
N62   Zn12  2.095 1_565  S
C185  H207  1.071 .      S
C186  H208  1.071 .      S
C187  H209  1.056 .      S
C188  H210  1.077 .      S
H203  C181  1.109 1_655  S
C190  N64   1.447 .      S
C190  H211  1.109 .      S
C190  H212  1.109 .      S
C190  H213  1.098 .      S
N64   C191  1.455 .      S
N64   H214  1.038 .      S
C191  C192  1.484 .      S
C191  H215  1.101 .      S
C191  H216  1.098 .      S
C194  H217  1.064 .      S
C195  H218  1.078 .      S
C196  H219  1.077 .      S
C197  H220  1.050 .      S
N66   Zn12  2.165 1_565  S
C199  N67   1.444 .      S
C199  H221  1.106 1_455  S
C199  H222  1.103 1_455  S
C199  H223  1.103 .      S
N67   C200  1.438 .      S
N67   H224  1.032 .      S
C200  C201  1.484 .      S
C200  H225  1.098 .      S
C200  H226  1.105 .      S
N68   Zn12  2.149 1_565  S
C203  H227  1.080 1_565  S
C204  H228  1.081 .      S
C205  H229  1.081 .      S
C206  H230  1.074 .      S
H221  C199  1.106 1_655  S
H222  C199  1.103 1_655  S
H227  C203  1.080 1_545  S
C208  N70   1.453 .      S
C208  H231  1.108 .      S
C208  H232  1.107 .      S
C208  H233  1.108 .      S
N70   C209  1.457 .      S
N70   H234  1.042 .      S
C209  C210  1.484 .      S
C209  H235  1.091 .      S
C209  H236  1.101 .      S
C212  H237  1.069 .      S
C213  H238  1.081 .      S
C214  H239  1.081 .      S
C215  H240  1.052 .      S
C217  N73   1.454 .      S
C217  H241  1.100 .      S
C217  H242  1.108 .      S
C217  H243  1.103 .      S
N73   C218  1.439 .      S
N73   H244  1.035 .      S
C218  C219  1.473 .      S
C218  H245  1.085 .      S
C218  H246  1.075 .      S
C221  H247  1.070 .      S
C222  H248  1.081 .      S
C223  H249  1.076 .      S
C224  H250  1.073 .      S
C226  N76   1.450 .      S
C226  H251  1.104 .      S
C226  H252  1.104 .      S
C226  H253  1.100 .      S
N76   C227  1.447 .      S
N76   H254  1.040 .      S
C227  C228  1.472 .      S
C227  H255  1.107 .      S
C227  H256  1.085 .      S
C230  H257  1.077 .      S
C231  H258  1.076 .      S
C232  H259  1.074 .      S
C233  H260  1.069 .      S
C235  N79   1.428 .      S
C235  H261  1.099 .      S
C235  H262  1.088 .      S
C235  H263  1.104 .      S
N79   C236  1.435 .      S
N79   H264  1.031 .      S
C236  C237  1.449 .      S
C236  H265  1.060 .      S
C236  H266  1.096 .      S
C239  H267  1.074 .      S
C240  H268  1.081 .      S
C241  H269  1.081 .      S
C242  H270  1.052 .      S
C244  N82   1.447 .      S
C244  H271  1.090 .      S
C244  H272  1.081 .      S
C244  H273  1.100 .      S
N82   C245  1.440 .      S
N82   H274  1.039 .      S
C245  C246  1.475 .      S
C245  H275  1.100 .      S
C245  H276  1.094 .      S
C248  H277  1.078 .      S
C249  H278  1.080 .      S
C250  H279  1.079 .      S
C251  H280  1.076 .      S
N84   Zn6   2.138 1_556  S
C253  N85   1.452 1_554  S
C253  H281  1.109 1_565  S
C253  H282  1.104 .      S
C253  H283  1.102 .      S
N85   C253  1.452 1_556  S
N85   C254  1.460 .      S
N85   H284  1.041 1_565  S
C254  C255  1.484 .      S
C254  H285  1.101 .      S
C254  H286  1.107 .      S
C257  H287  1.067 .      S
C258  H288  1.081 .      S
C259  H289  1.080 .      S
C260  H290  1.053 .      S
N87   Zn15  2.200 1_655  S
H281  C253  1.109 1_545  S
H284  N85   1.041 1_545  S
C262  N88   1.448 .      S
C262  H291  1.109 .      S
C262  H292  1.104 .      S
C262  H293  1.103 .      S
N88   C263  1.466 .      S
N88   H294  1.033 .      S
C263  C264  1.498 .      S
C263  H295  1.106 1_554  S
C263  H296  1.095 1_554  S
C266  H297  1.078 1_564  S
C267  H298  1.081 1_565  S
C268  H299  1.081 .      S
C269  H300  1.066 .      S
H295  C263  1.106 1_556  S
H296  C263  1.095 1_556  S
H297  C266  1.078 1_546  S
H298  C267  1.081 1_545  S
C271  N91   1.455 .      S
C271  H301  1.101 .      S
C271  H302  1.109 .      S
C271  H303  1.102 .      S
N91   C272  1.449 .      S
N91   H304  1.044 .      S
C272  C273  1.475 .      S
C272  H305  1.092 .      S
C272  H306  1.103 .      S
N92   Zn3   2.238 1_455  S
C275  H307  1.016 .      S
C276  H308  1.066 .      S
C277  H309  1.080 .      S
C278  H310  1.043 .      S
C280  N94   1.448 .      S
C280  H311  1.103 .      S
C280  H312  1.095 .      S
C280  H313  1.101 .      S
N94   C281  1.443 .      S
N94   H314  1.037 .      S
C281  C282  1.473 .      S
C281  H315  1.109 1_655  S
C281  H316  1.105 .      S
C284  H317  1.072 1_455  S
C285  H318  1.075 .      S
C286  H319  1.071 .      S
C287  H320  1.075 .      S
H315  C281  1.109 1_455  S
H317  C284  1.072 1_655  S
C3    N2    1.405 .      A
C3    N3    1.400 .      A
N2    C4    1.353 .      A
C4    C5    1.366 .      A
C4    C9    1.354 .      A
C5    C6    1.369 .      A
C6    C7    1.357 .      A
C7    C8    1.359 .      A
C8    C9    1.360 .      A
C9    N3    1.331 .      A
C12   N5    1.371 .      A
C12   N6    1.370 1_455  A
N5    C13   1.339 1_455  A
C13   N5    1.339 1_655  A
C13   C14   1.371 .      A
C13   C18   1.366 .      A
C14   C15   1.381 .      A
C15   C16   1.386 .      A
C16   C17   1.385 .      A
C17   C18   1.369 .      A
C18   N6    1.358 .      A
N6    C12   1.370 1_655  A
C21   N8    1.394 .      A
C21   N9    1.389 .      A
N8    C22   1.342 .      A
C22   C23   1.331 .      A
C22   C27   1.341 .      A
C23   C24   1.380 .      A
C24   C25   1.373 .      A
C25   C26   1.378 .      A
C26   C27   1.357 .      A
C27   N9    1.324 .      A
C30   N11   1.394 .      A
C30   N12   1.384 .      A
N11   C31   1.346 .      A
C31   C32   1.372 .      A
C31   C36   1.355 .      A
C32   C33   1.382 .      A
C33   C34   1.378 .      A
C34   C35   1.372 .      A
C35   C36   1.356 .      A
C36   N12   1.343 .      A
C39   N14   1.386 .      A
C39   N15   1.389 .      A
N14   C40   1.346 .      A
C40   C41   1.376 .      A
C40   C45   1.344 .      A
C41   C42   1.375 .      A
C42   C43   1.379 .      A
C43   C44   1.377 .      A
C44   C45   1.358 .      A
C45   N15   1.346 .      A
C48   N17   1.372 .      A
C48   N18   1.391 .      A
N17   C49   1.356 .      A
C49   C50   1.380 .      A
C49   C54   1.357 .      A
C50   C51   1.382 .      A
C51   C52   1.381 .      A
C52   C53   1.380 .      A
C53   C54   1.370 .      A
C54   N18   1.343 .      A
C57   N20   1.373 .      A
C57   N21   1.367 .      A
N20   C58   1.349 .      A
C58   C59   1.364 .      A
C58   C63   1.368 .      A
C59   C60   1.384 .      A
C60   C61   1.388 .      A
C61   C62   1.383 .      A
C62   C63   1.374 .      A
C63   N21   1.349 .      A
C66   N23   1.387 .      A
C66   N24   1.386 .      A
N23   C67   1.346 .      A
C67   C68   1.374 .      A
C67   C72   1.357 .      A
C68   C69   1.376 .      A
C69   C70   1.378 .      A
C70   C71   1.381 .      A
C71   C72   1.377 .      A
C72   N24   1.355 .      A
C75   N26   1.407 .      A
C75   N27   1.387 .      A
N26   C76   1.346 1_455  A
C76   N26   1.346 1_655  A
C76   C77   1.366 .      A
C76   C81   1.362 1_655  A
C77   C78   1.376 .      A
C78   C79   1.382 .      A
C79   C80   1.382 1_655  A
C80   C79   1.382 1_455  A
C80   C81   1.371 .      A
C81   C76   1.362 1_455  A
C81   N27   1.345 .      A
C84   N29   1.397 .      A
C84   N30   1.407 .      A
N29   C85   1.352 .      A
C85   C86   1.374 .      A
C85   C90   1.373 .      A
C86   C87   1.383 .      A
C87   C88   1.377 .      A
C88   C89   1.377 .      A
C89   C90   1.376 .      A
C90   N30   1.354 .      A
C93   N32   1.380 .      A
C93   N33   1.392 .      A
N32   C94   1.348 .      A
C94   C95   1.377 .      A
C94   C99   1.365 .      A
C95   C96   1.383 .      A
C96   C97   1.385 .      A
C97   C98   1.382 .      A
C98   C99   1.370 .      A
C99   N33   1.353 .      A
C102  N35   1.404 .      A
C102  N36   1.378 .      A
N35   C103  1.350 .      A
C103  C104  1.374 .      A
C103  C108  1.368 .      A
C104  C105  1.381 .      A
C105  C106  1.383 .      A
C106  C107  1.381 .      A
C107  C108  1.372 .      A
C108  N36   1.352 .      A
C111  N38   1.384 1_655  A
C111  N39   1.386 1_655  A
N38   C111  1.384 1_455  A
N38   C112  1.332 .      A
C112  C113  1.363 .      A
C112  C117  1.360 .      A
C113  C114  1.370 .      A
C114  C115  1.377 1_556  A
C115  C114  1.377 1_554  A
C115  C116  1.391 1_554  A
C116  C115  1.391 1_556  A
C116  C117  1.373 .      A
C117  N39   1.361 .      A
N39   C111  1.386 1_455  A
C120  N41   1.403 .      A
C120  N42   1.370 .      A
N41   C121  1.352 .      A
C121  C122  1.375 1_556  A
C121  C126  1.373 .      A
C122  C121  1.375 1_554  A
C122  C123  1.385 .      A
C123  C124  1.390 .      A
C124  C125  1.384 1_554  A
C125  C124  1.384 1_556  A
C125  C126  1.375 .      A
C126  N42   1.349 .      A
C129  N44   1.366 .      A
C129  N45   1.379 .      A
N44   C130  1.354 .      A
C130  C131  1.377 .      A
C130  C135  1.367 .      A
C131  C132  1.386 .      A
C132  C133  1.391 .      A
C133  C134  1.385 .      A
C134  C135  1.372 .      A
C135  N45   1.343 .      A
C138  N47   1.392 .      A
C138  N48   1.384 .      A
N47   C139  1.346 .      A
C139  C140  1.365 .      A
C139  C144  1.365 .      A
C140  C141  1.379 .      A
C141  C142  1.381 .      A
C142  C143  1.380 .      A
C143  C144  1.365 .      A
C144  N48   1.349 .      A
C147  N50   1.390 .      A
C147  N51   1.395 .      A
N50   C148  1.343 .      A
C148  C149  1.360 .      A
C148  C153  1.348 .      A
C149  C150  1.375 .      A
C150  C151  1.364 .      A
C151  C152  1.368 .      A
C152  C153  1.357 .      A
C153  N51   1.322 .      A
C156  N53   1.376 1_655  A
C156  N54   1.375 1_655  A
N53   C156  1.376 1_455  A
N53   C157  1.355 .      A
C157  C158  1.373 .      A
C157  C162  1.366 .      A
C158  C159  1.385 .      A
C159  C160  1.389 .      A
C160  C161  1.384 .      A
C161  C162  1.376 .      A
C162  N54   1.347 .      A
N54   C156  1.375 1_455  A
C165  N56   1.370 .      A
C165  N57   1.379 .      A
N56   C166  1.356 .      A
C166  C167  1.373 1_455  A
C166  C171  1.364 .      A
C167  C166  1.373 1_655  A
C167  C168  1.387 .      A
C168  C169  1.388 .      A
C169  C170  1.383 1_655  A
C170  C169  1.383 1_455  A
C170  C171  1.372 .      A
C171  N57   1.339 .      A
C174  N59   1.389 .      A
C174  N60   1.384 .      A
N59   C175  1.359 .      A
C175  C176  1.369 .      A
C175  C180  1.357 .      A
C176  C177  1.386 .      A
C177  C178  1.382 .      A
C178  C179  1.377 .      A
C179  C180  1.372 .      A
C180  N60   1.339 .      A
C183  N62   1.386 1_545  A
C183  N63   1.390 1_545  A
N62   C183  1.386 1_565  A
N62   C184  1.341 .      A
C184  C185  1.356 .      A
C184  C189  1.368 .      A
C185  C186  1.378 .      A
C186  C187  1.367 .      A
C187  C188  1.360 .      A
C188  C189  1.358 .      A
C189  N63   1.326 .      A
N63   C183  1.390 1_565  A
C192  N65   1.388 .      A
C192  N66   1.392 .      A
N65   C193  1.344 .      A
C193  C194  1.379 1_565  A
C193  C198  1.354 1_565  A
C194  C193  1.379 1_545  A
C194  C195  1.371 .      A
C195  C196  1.368 .      A
C196  C197  1.379 .      A
C197  C198  1.359 .      A
C198  C193  1.354 1_545  A
C198  N66   1.356 1_545  A
N66   C198  1.356 1_565  A
C201  N68   1.394 .      A
C201  N69   1.387 .      A
N68   C202  1.350 .      A
C202  C203  1.376 .      A
C202  C207  1.369 .      A
C203  C204  1.386 .      A
C204  C205  1.390 .      A
C205  C206  1.385 .      A
C206  C207  1.371 .      A
C207  N69   1.348 .      A
C210  N71   1.365 .      A
C210  N72   1.394 .      A
N71   C211  1.358 .      A
C211  C212  1.389 .      A
C211  C216  1.349 .      A
C212  C213  1.379 .      A
C213  C214  1.374 .      A
C214  C215  1.375 .      A
C215  C216  1.368 .      A
C216  N72   1.351 .      A
C219  N74   1.401 .      A
C219  N75   1.384 .      A
N74   C220  1.343 .      A
C220  C221  1.372 .      A
C220  C225  1.360 .      A
C221  C222  1.379 .      A
C222  C223  1.384 .      A
C223  C224  1.387 .      A
C224  C225  1.361 .      A
C225  N75   1.349 .      A
C228  N77   1.400 .      A
C228  N78   1.367 .      A
N77   C229  1.346 .      A
C229  C230  1.368 .      A
C229  C234  1.359 .      A
C230  C231  1.372 .      A
C231  C232  1.389 .      A
C232  C233  1.373 .      A
C233  C234  1.359 .      A
C234  N78   1.339 .      A
C237  N80   1.379 .      A
C237  N81   1.360 .      A
N80   C238  1.337 .      A
C238  C239  1.373 1_556  A
C238  C243  1.363 .      A
C239  C238  1.373 1_554  A
C239  C240  1.380 .      A
C240  C241  1.386 .      A
C241  C242  1.385 .      A
C242  C243  1.369 1_554  A
C243  C242  1.369 1_556  A
C243  N81   1.361 .      A
C246  N83   1.381 .      A
C246  N84   1.391 .      A
N83   C247  1.336 .      A
C247  C248  1.371 .      A
C247  C252  1.362 1_556  A
C248  C249  1.382 1_556  A
C249  C248  1.382 1_554  A
C249  C250  1.388 .      A
C250  C251  1.392 .      A
C251  C252  1.355 .      A
C252  C247  1.362 1_554  A
C252  N84   1.346 1_554  A
N84   C252  1.346 1_556  A
C255  N86   1.395 .      A
C255  N87   1.402 .      A
N86   C256  1.341 .      A
C256  C257  1.373 .      A
C256  C261  1.352 .      A
C257  C258  1.383 1_565  A
C258  C257  1.383 1_545  A
C258  C259  1.384 .      A
C259  C260  1.382 .      A
C260  C261  1.336 1_545  A
C261  C260  1.336 1_565  A
C261  N87   1.339 .      A
C264  N89   1.387 1_554  A
C264  N90   1.386 .      A
N89   C264  1.387 1_556  A
N89   C265  1.342 1_556  A
C265  N89   1.342 1_554  A
C265  C266  1.373 1_455  A
C265  C270  1.364 .      A
C266  C265  1.373 1_655  A
C266  C267  1.382 .      A
C267  C268  1.387 .      A
C268  C269  1.383 1_655  A
C269  C268  1.383 1_455  A
C269  C270  1.369 .      A
C270  N90   1.351 .      A
C273  N92   1.407 .      A
C273  N93   1.392 1_554  A
N92   C274  1.363 1_455  A
C274  N92   1.363 1_655  A
C274  C275  1.352 .      A
C274  C279  1.344 1_554  A
C275  C276  1.377 1_554  A
C276  C275  1.377 1_556  A
C276  C277  1.370 .      A
C277  C278  1.364 .      A
C278  C279  1.345 .      A
C279  C274  1.344 1_556  A
C279  N93   1.315 1_655  A
N93   C273  1.392 1_556  A
N93   C279  1.315 1_455  A
C282  N95   1.393 .      A
C282  N96   1.377 1_655  A
N95   C283  1.346 1_655  A
C283  N95   1.346 1_455  A
C283  C284  1.350 .      A
C283  C288  1.349 .      A
C284  C285  1.378 .      A
C285  C286  1.382 .      A
C286  C287  1.374 .      A
C287  C288  1.363 .      A
C288  N96   1.331 .      A
N96   C282  1.377 1_455  A
