data_str_m1_o12004_PCR
_audit_creation_date              2015-10-01T06:32:15-0700
_symmetry_space_group_name_H-M    P1
_symmetry_Int_Tables_number       1
_space_group_crystal_system       triclinic
loop_
_symmetry_equiv_pos_as_xyz
  x,y,z
_cell_length_a                    24.7504389
_cell_length_b                    24.8882416
_cell_length_c                    24.4607034
_cell_angle_alpha                 73.7349831
_cell_angle_beta                  100.065731
_cell_angle_gamma                 106.849951
_cell_volume                      13771.586081

loop_
_atom_site_label
_atom_site_type_symbol
_atom_site_description
_atom_site_fract_x
_atom_site_fract_y
_atom_site_fract_z
_atom_type_partial_charge
Zn1   Zn    Zn3+2 0.708590 0.325315 0.820044 0.000000
Zn2   Zn    Zn3+2 0.906113 0.165098 0.540794 0.000000
Zn3   Zn    Zn3+2 0.729043 0.746754 0.853516 0.000000
Zn4   Zn    Zn3+2 0.255811 0.213614 0.868935 0.000000
Zn5   Zn    Zn3+2 0.126364 0.883965 0.577062 0.000000
Zn6   Zn    Zn3+2 0.555335 0.286594 0.570346 0.000000
Zn7   Zn    Zn3+2 0.892985 0.007452 0.798415 0.000000
Zn8   Zn    Zn3+2 0.116144 0.731730 0.843027 0.000000
Zn9   Zn    Zn3+2 0.132483 0.308381 0.014950 0.000000
Zn10  Zn    Zn3+2 0.269392 0.165526 0.238650 0.000000
Zn11  Zn    Zn3+2 0.857728 0.589337 0.781528 0.000000
Zn12  Zn    Zn3+2 0.865324 0.588776 0.348021 0.000000
Zn13  Zn    Zn3+2 0.739269 0.713518 0.119500 0.000000
Zn14  Zn    Zn3+2 0.293172 0.146381 0.510217 0.000000
Zn15  Zn    Zn3+2 0.762176 0.680677 0.518920 0.000000
Zn16  Zn    Zn3+2 0.463166 0.620712 0.794474 0.000000
Zn17  Zn    Zn3+2 0.310866 0.561713 0.559991 0.000000
Zn18  Zn    Zn3+2 0.136735 0.713872 0.420632 0.000000
Zn19  Zn    Zn3+2 0.488619 0.582648 0.183581 0.000000
Zn20  Zn    Zn3+2 0.520031 0.549541 0.452077 0.000000
Zn21  Zn    Zn3+2 0.128644 0.951878 0.927843 0.000000
Zn22  Zn    Zn3+2 0.510808 0.376322 0.920360 0.000000
Zn23  Zn    Zn3+2 0.877782 0.935934 0.454994 0.000000
Zn24  Zn    Zn3+2 0.878726 0.169830 0.958801 0.000000
Zn25  Zn    Zn3+2 0.284142 0.578879 0.976346 0.000000
Zn26  Zn    Zn3+2 0.121256 0.920120 0.202125 0.000000
Zn27  Zn    Zn3+2 0.730764 0.319903 0.402888 0.000000
Zn28  Zn    Zn3+2 0.860202 0.953533 0.183001 0.000000
Zn29  Zn    Zn3+2 0.516738 0.333244 0.198511 0.000000
Zn30  Zn    Zn3+2 0.166846 0.295486 0.595983 0.000000
C1    C     C_3   0.964071 0.269602 0.692213 0.000000
N1    N     N_3   0.967222 0.233661 0.655510 0.000000
C2    C     C_3   0.023687 0.254501 0.637367 0.000000
C3    C     C_R   0.030574 0.242142 0.583541 0.000000
N2    N     N_R   0.985082 0.225497 0.544190 0.000000
C4    C     C_R   0.006245 0.253986 0.494144 0.000000
C5    C     C_R   0.979275 0.252511 0.440347 0.000000
C6    C     C_R   0.008056 0.286519 0.394050 0.000000
C7    C     C_R   0.060396 0.324325 0.402770 0.000000
C8    C     C_R   0.086779 0.323726 0.457602 0.000000
C9    C     C_R   0.061474 0.283317 0.502759 0.000000
N3    N     N_R   0.080226 0.273054 0.559364 0.000000
H1    H     H_    0.921268 0.276474 0.686214 0.000000
H2    H     H_    0.975895 0.248626 0.736851 0.000000
H3    H     H_    0.992952 0.313550 0.683386 0.000000
H4    H     H_    0.937336 0.238712 0.620587 0.000000
H5    H     H_    0.033912 0.301825 0.625237 0.000000
H6    H     H_    0.053774 0.238600 0.672528 0.000000
H7    H     H_    0.937131 0.225652 0.434166 0.000000
H8    H     H_    0.988229 0.286251 0.351080 0.000000
H9    H     H_    0.080134 0.355404 0.366599 0.000000
H10   H     H_    0.121432 0.358958 0.464248 0.000000
C10   C     C_3   0.339644 0.171831 0.755165 0.000000
N4    N     N_3   0.287194 0.179595 0.766844 0.000000
C11   C     C_3   0.269422 0.223804 0.720043 0.000000
C12   C     C_R   0.216670 0.235391 0.730500 0.000000
N5    N     N_R   0.182794 0.264106 0.686769 0.000000
C13   C     C_R   0.159735 0.288359 0.716043 0.000000
C14   C     C_R   0.132385 0.330375 0.691647 0.000000
C15   C     C_R   0.123273 0.363561 0.723599 0.000000
C16   C     C_R   0.147669 0.357325 0.779097 0.000000
C17   C     C_R   0.175503 0.314628 0.803410 0.000000
C18   C     C_R   0.177639 0.276332 0.772553 0.000000
N6    N     N_R   0.211654 0.239344 0.784775 0.000000
H11   H     H_    0.374672 0.210167 0.759678 0.000000
H12   H     H_    0.349473 0.133279 0.786676 0.000000
H13   H     H_    0.335355 0.165199 0.711496 0.000000
H14   H     H_    0.297263 0.194885 0.803629 0.000000
H15   H     H_    0.302889 0.264054 0.718744 0.000000
H16   H     H_    0.263603 0.211363 0.679322 0.000000
H17   H     H_    0.120105 0.337103 0.647591 0.000000
H18   H     H_    0.102103 0.397672 0.703949 0.000000
H19   H     H_    0.148085 0.387863 0.802928 0.000000
H20   H     H_    0.200055 0.317788 0.843100 0.000000
C19   C     C_3   0.038191 0.180058 0.849709 0.000000
N7    N     N_3   0.090046 0.223528 0.858998 0.000000
C20   C     C_3   0.116372 0.202816 0.915532 0.000000
C21   C     C_R   0.169225 0.245608 0.931621 0.000000
N8    N     N_R   0.222066 0.243384 0.922715 0.000000
C22   C     C_R   0.257007 0.278953 0.953608 0.000000
C23   C     C_R   0.311728 0.279897 0.974150 0.000000
C24   C     C_R   0.340190 0.314770 0.009993 0.000000
C25   C     C_R   0.311428 0.344900 0.028630 0.000000
C26   C     C_R   0.253820 0.335449 0.016103 0.000000
C27   C     C_R   0.227749 0.303248 0.977078 0.000000
N9    N     N_R   0.172081 0.282850 0.965647 0.000000
H21   H     H_    0.020732 0.191693 0.804710 0.000000
H22   H     H_    0.046639 0.136821 0.858985 0.000000
H23   H     H_    0.006931 0.179215 0.877279 0.000000
H24   H     H_    0.078416 0.260235 0.858879 0.000000
H25   H     H_    0.085633 0.191852 0.947336 0.000000
H26   H     H_    0.129075 0.164187 0.914052 0.000000
H27   H     H_    0.328141 0.246529 0.971835 0.000000
H28   H     H_    0.382613 0.312958 0.028488 0.000000
H29   H     H_    0.331877 0.369778 0.058851 0.000000
H30   H     H_    0.231208 0.350622 0.039385 0.000000
C28   C     C_3   0.297131 0.839728 0.696609 0.000000
N10   N     N_3   0.250807 0.810321 0.732124 0.000000
C29   C     C_3   0.201331 0.783656 0.698060 0.000000
C30   C     C_R   0.150416 0.799483 0.706996 0.000000
N11   N     N_R   0.126072 0.780451 0.758703 0.000000
C31   C     C_R   0.085673 0.808427 0.746068 0.000000
C32   C     C_R   0.046383 0.802765 0.780314 0.000000
C33   C     C_R   0.006455 0.833306 0.761566 0.000000
C34   C     C_R   0.006548 0.867142 0.707288 0.000000
C35   C     C_R   0.049593 0.874853 0.673874 0.000000
C36   C     C_R   0.085344 0.841462 0.692816 0.000000
N12   N     N_R   0.124210 0.836916 0.664362 0.000000
H31   H     H_    0.334581 0.859663 0.723123 0.000000
H32   H     H_    0.308652 0.808497 0.679453 0.000000
H33   H     H_    0.285127 0.874387 0.661118 0.000000
H34   H     H_    0.240400 0.842438 0.744547 0.000000
H35   H     H_    0.207843 0.799337 0.652042 0.000000
H36   H     H_    0.194435 0.735983 0.711179 0.000000
H37   H     H_    0.044066 0.771410 0.818691 0.000000
H38   H     H_    0.973076 0.827930 0.787304 0.000000
H39   H     H_    0.973628 0.889187 0.693318 0.000000
H40   H     H_    0.059119 0.907661 0.635560 0.000000
C37   C     C_3   0.780393 0.422457 0.657973 0.000000
N13   N     N_3   0.741943 0.367458 0.681589 0.000000
C38   C     C_3   0.684959 0.369891 0.656963 0.000000
C39   C     C_R   0.642571 0.320118 0.687197 0.000000
N14   N     N_R   0.595634 0.287321 0.658695 0.000000
C40   C     C_R   0.577096 0.242192 0.702456 0.000000
C41   C     C_R   0.534289 0.193244 0.699534 0.000000
C42   C     C_R   0.522750 0.150480 0.749097 0.000000
C43   C     C_R   0.554499 0.156690 0.800476 0.000000
C44   C     C_R   0.598359 0.205509 0.802602 0.000000
C45   C     C_R   0.609294 0.248195 0.753068 0.000000
N15   N     N_R   0.651169 0.298300 0.746201 0.000000
H41   H     H_    0.819325 0.414638 0.648708 0.000000
H42   H     H_    0.759563 0.445711 0.618724 0.000000
H43   H     H_    0.792270 0.450105 0.688640 0.000000
H44   H     H_    0.743361 0.363653 0.724863 0.000000
H45   H     H_    0.677372 0.408921 0.661951 0.000000
H46   H     H_    0.680827 0.369307 0.611880 0.000000
H47   H     H_    0.510297 0.187326 0.660039 0.000000
H48   H     H_    0.488931 0.111848 0.747671 0.000000
H49   H     H_    0.545134 0.123085 0.839121 0.000000
H50   H     H_    0.622572 0.210352 0.842976 0.000000
C46   C     C_3   0.065361 0.129049 0.720109 0.000000
N16   N     N_3   0.004588 0.111465 0.723939 0.000000
C47   C     C_3   0.975241 0.105214 0.668368 0.000000
C48   C     C_R   0.914085 0.095908 0.669246 0.000000
N17   N     N_R   0.883572 0.063293 0.715362 0.000000
C49   C     C_R   0.831400 0.072073 0.695150 0.000000
C50   C     C_R   0.782411 0.048388 0.721821 0.000000
C51   C     C_R   0.732705 0.060768 0.692105 0.000000
C52   C     C_R   0.732589 0.095923 0.636788 0.000000
C53   C     C_R   0.782177 0.119128 0.610331 0.000000
C54   C     C_R   0.831073 0.106606 0.640666 0.000000
N18   N     N_R   0.882978 0.122690 0.622708 0.000000
H51   H     H_    0.086694 0.154397 0.752108 0.000000
H52   H     H_    0.080862 0.090142 0.729205 0.000000
H53   H     H_    0.075980 0.154988 0.676820 0.000000
H54   H     H_    0.993215 0.144543 0.733721 0.000000
H55   H     H_    0.988686 0.143957 0.635484 0.000000
H56   H     H_    0.984358 0.072121 0.652704 0.000000
H57   H     H_    0.782469 0.020716 0.764628 0.000000
H58   H     H_    0.693605 0.042824 0.712121 0.000000
H59   H     H_    0.693409 0.105082 0.614154 0.000000
H60   H     H_    0.782008 0.145925 0.567280 0.000000
C55   C     C_3   0.837085 0.838583 0.991518 0.000000
N19   N     N_3   0.807247 0.847271 0.934554 0.000000
C56   C     C_3   0.846252 0.857699 0.892962 0.000000
C57   C     C_R   0.816256 0.872088 0.836074 0.000000
N20   N     N_R   0.770481 0.832000 0.817339 0.000000
C58   C     C_R   0.756522 0.861040 0.764310 0.000000
C59   C     C_R   0.712179 0.841790 0.726245 0.000000
C60   C     C_R   0.707935 0.876523 0.671632 0.000000
C61   C     C_R   0.750366 0.926394 0.655359 0.000000
C62   C     C_R   0.795867 0.943406 0.694003 0.000000
C63   C     C_R   0.794538 0.913862 0.750556 0.000000
N21   N     N_R   0.831605 0.924951 0.796699 0.000000
H61   H     H_    0.806435 0.822251 0.023834 0.000000
H62   H     H_    0.863618 0.808091 0.997130 0.000000
H63   H     H_    0.863336 0.879791 0.998483 0.000000
H64   H     H_    0.791184 0.883326 0.925914 0.000000
H65   H     H_    0.882089 0.893890 0.896955 0.000000
H66   H     H_    0.861468 0.819061 0.897643 0.000000
H67   H     H_    0.682536 0.800141 0.737574 0.000000
H68   H     H_    0.673585 0.862898 0.640509 0.000000
H69   H     H_    0.748372 0.951443 0.611712 0.000000
H70   H     H_    0.832051 0.976895 0.678714 0.000000
C64   C     C_3   0.264012 0.131872 0.082974 0.000000
N22   N     N_3   0.239147 0.152000 0.119825 0.000000
C65   C     C_3   0.226954 0.205744 0.087095 0.000000
C66   C     C_R   0.199808 0.227681 0.122176 0.000000
N23   N     N_R   0.160862 0.261636 0.099763 0.000000
C67   C     C_R   0.139224 0.258365 0.147680 0.000000
C68   C     C_R   0.099901 0.284983 0.152930 0.000000
C69   C     C_R   0.074342 0.268010 0.202734 0.000000
C70   C     C_R   0.088679 0.224271 0.246339 0.000000
C71   C     C_R   0.131750 0.201237 0.241788 0.000000
C72   C     C_R   0.160551 0.222429 0.193882 0.000000
N24   N     N_R   0.204173 0.206511 0.181143 0.000000
H71   H     H_    0.240956 0.137884 0.039780 0.000000
H72   H     H_    0.308688 0.157376 0.079648 0.000000
H73   H     H_    0.261748 0.085327 0.101494 0.000000
H74   H     H_    0.272047 0.162606 0.150356 0.000000
H75   H     H_    0.267659 0.235604 0.076486 0.000000
H76   H     H_    0.197105 0.198561 0.049280 0.000000
H77   H     H_    0.083829 0.312786 0.116914 0.000000
H78   H     H_    0.040911 0.286407 0.206237 0.000000
H79   H     H_    0.067318 0.209019 0.284855 0.000000
H80   H     H_    0.144198 0.170133 0.277353 0.000000
C73   C     C_3   0.642386 0.441379 0.746307 0.000000
N25   N     N_3   0.701598 0.446314 0.753197 0.000000
C74   C     C_3   0.728074 0.475617 0.797789 0.000000
C75   C     C_R   0.779452 0.458180 0.812535 0.000000
N26   N     N_R   0.776172 0.403149 0.808818 0.000000
C76   C     C_R   0.829499 0.408631 0.798744 0.000000
C77   C     C_R   0.847970 0.371060 0.779472 0.000000
C78   C     C_R   0.900099 0.391637 0.758225 0.000000
C79   C     C_R   0.937207 0.442644 0.767886 0.000000
C80   C     C_R   0.919005 0.478095 0.791170 0.000000
C81   C     C_R   0.862874 0.462984 0.799645 0.000000
N27   N     N_R   0.831779 0.497292 0.804986 0.000000
H81   H     H_    0.619838 0.407332 0.723602 0.000000
H82   H     H_    0.627177 0.429135 0.788564 0.000000
H83   H     H_    0.635930 0.483458 0.721231 0.000000
H84   H     H_    0.718311 0.472342 0.715657 0.000000
H85   H     H_    0.737999 0.522797 0.781560 0.000000
H86   H     H_    0.704340 0.460485 0.835823 0.000000
H87   H     H_    0.820365 0.329987 0.774200 0.000000
H88   H     H_    0.911360 0.368046 0.733110 0.000000
H89   H     H_    0.979431 0.456176 0.754417 0.000000
H90   H     H_    0.946991 0.518236 0.798319 0.000000
C82   C     C_3   0.791639 0.777826 0.695414 0.000000
N28   N     N_3   0.839008 0.752161 0.718399 0.000000
C83   C     C_3   0.843012 0.738102 0.780423 0.000000
C84   C     C_R   0.801023 0.683384 0.804725 0.000000
N29   N     N_R   0.761595 0.685026 0.837421 0.000000
C85   C     C_R   0.752154 0.631605 0.872911 0.000000
C86   C     C_R   0.724004 0.611999 0.921444 0.000000
C87   C     C_R   0.733157 0.562835 0.960755 0.000000
C88   C     C_R   0.766734 0.532696 0.949282 0.000000
C89   C     C_R   0.787008 0.547871 0.896905 0.000000
C90   C     C_R   0.782014 0.599313 0.860318 0.000000
N30   N     N_R   0.810957 0.628919 0.814813 0.000000
H91   H     H_    0.779439 0.775741 0.650083 0.000000
H92   H     H_    0.754506 0.754343 0.719721 0.000000
H93   H     H_    0.805253 0.823605 0.697209 0.000000
H94   H     H_    0.874973 0.785343 0.706894 0.000000
H95   H     H_    0.886018 0.733089 0.798414 0.000000
H96   H     H_    0.836436 0.774136 0.794401 0.000000
H97   H     H_    0.698145 0.635804 0.930817 0.000000
H98   H     H_    0.717290 0.549633 0.002005 0.000000
H99   H     H_    0.778956 0.498276 0.982111 0.000000
H100  H     H_    0.809357 0.521418 0.888083 0.000000
C91   C     C_3   0.654827 0.603533 0.682460 0.000000
N31   N     N_3   0.709807 0.591362 0.697356 0.000000
C92   C     C_3   0.750068 0.643728 0.674329 0.000000
C93   C     C_R   0.796505 0.631633 0.655137 0.000000
N32   N     N_R   0.837596 0.609185 0.692405 0.000000
C94   C     C_R   0.871660 0.608102 0.656063 0.000000
C95   C     C_R   0.918708 0.587768 0.669734 0.000000
C96   C     C_R   0.954452 0.599733 0.628411 0.000000
C97   C     C_R   0.942284 0.632943 0.574623 0.000000
C98   C     C_R   0.892809 0.650358 0.560865 0.000000
C99   C     C_R   0.855829 0.634411 0.601595 0.000000
N33   N     N_R   0.805662 0.647103 0.597971 0.000000
H101  H     H_    0.626047 0.573647 0.712378 0.000000
H102  H     H_    0.658004 0.647806 0.685616 0.000000
H103  H     H_    0.636699 0.596210 0.640162 0.000000
H104  H     H_    0.711709 0.561077 0.676798 0.000000
H105  H     H_    0.731311 0.668428 0.636475 0.000000
H106  H     H_    0.764941 0.667521 0.706899 0.000000
H107  H     H_    0.929378 0.566756 0.712479 0.000000
H108  H     H_    0.993661 0.586644 0.639521 0.000000
H109  H     H_    0.970460 0.644458 0.542203 0.000000
H110  H     H_    0.883957 0.673442 0.518131 0.000000
C100  C     C_3   0.945870 0.720943 0.703845 0.000000
N34   N     N_3   0.000221 0.715087 0.696220 0.000000
C101  C     C_3   0.018088 0.668879 0.740754 0.000000
C102  C     C_R   0.997126 0.658188 0.797346 0.000000
N35   N     N_R   0.945099 0.621461 0.814393 0.000000
C103  C     C_R   0.955696 0.612850 0.872045 0.000000
C104  C     C_R   0.927142 0.568974 0.912683 0.000000
C105  C     C_R   0.946894 0.565763 0.969808 0.000000
C106  C     C_R   0.995136 0.605870 0.985337 0.000000
C107  C     C_R   0.026734 0.646276 0.943669 0.000000
C108  C     C_R   0.007302 0.646253 0.887610 0.000000
N36   N     N_R   0.035615 0.674064 0.841788 0.000000
H111  H     H_    0.928034 0.745523 0.662940 0.000000
H112  H     H_    0.916908 0.679124 0.717487 0.000000
H113  H     H_    0.949952 0.742589 0.737814 0.000000
H114  H     H_    0.994587 0.703694 0.657525 0.000000
H115  H     H_    0.008826 0.628652 0.727154 0.000000
H116  H     H_    0.064938 0.681283 0.747481 0.000000
H117  H     H_    0.895429 0.533826 0.900453 0.000000
H118  H     H_    0.925098 0.531171 0.002525 0.000000
H119  H     H_    0.009953 0.603181 0.030054 0.000000
H120  H     H_    0.066825 0.674625 0.955015 0.000000
C109  C     C_3   0.075207 0.628310 0.249018 0.000000
N37   N     N_3   0.032673 0.613521 0.288656 0.000000
C110  C     C_3   0.030932 0.666164 0.302363 0.000000
C111  C     C_R   0.010848 0.652437 0.360326 0.000000
N38   N     N_R   0.956747 0.617930 0.374599 0.000000
C112  C     C_R   0.969237 0.596061 0.430763 0.000000
C113  C     C_R   0.936676 0.548725 0.464377 0.000000
C114  C     C_R   0.957663 0.529071 0.520006 0.000000
C115  C     C_R   0.011158 0.556264 0.540311 0.000000
C116  C     C_R   0.046265 0.600744 0.504280 0.000000
C117  C     C_R   0.023687 0.620499 0.449832 0.000000
N39   N     N_R   0.051220 0.659528 0.407235 0.000000
H121  H     H_    0.068237 0.592411 0.228002 0.000000
H122  H     H_    0.071720 0.668356 0.216226 0.000000
H123  H     H_    0.118405 0.635444 0.271639 0.000000
H124  H     H_    0.043636 0.584376 0.325791 0.000000
H125  H     H_    0.074228 0.694238 0.303751 0.000000
H126  H     H_    0.005324 0.689492 0.267903 0.000000
H127  H     H_    0.895456 0.527795 0.448418 0.000000
H128  H     H_    0.932002 0.493032 0.548391 0.000000
H129  H     H_    0.024279 0.541786 0.584957 0.000000
H130  H     H_    0.089989 0.619064 0.517709 0.000000
C118  C     C_3   0.807092 0.468665 0.520249 0.000000
N40   N     N_3   0.791860 0.516272 0.476684 0.000000
C119  C     C_3   0.819019 0.568497 0.494703 0.000000
C120  C     C_R   0.813021 0.618949 0.447315 0.000000
N41   N     N_R   0.824686 0.626966 0.391650 0.000000
C121  C     C_R   0.803753 0.673602 0.364630 0.000000
C122  C     C_R   0.803367 0.704085 0.308673 0.000000
C123  C     C_R   0.776821 0.748606 0.290637 0.000000
C124  C     C_R   0.753231 0.764305 0.328625 0.000000
C125  C     C_R   0.755901 0.735506 0.384970 0.000000
C126  C     C_R   0.782210 0.691534 0.401737 0.000000
N42   N     N_R   0.789484 0.660045 0.454824 0.000000
H131  H     H_    0.833721 0.449874 0.502893 0.000000
H132  H     H_    0.831073 0.483471 0.558208 0.000000
H133  H     H_    0.767602 0.435575 0.532362 0.000000
H134  H     H_    0.748593 0.510879 0.476597 0.000000
H135  H     H_    0.797539 0.568463 0.530779 0.000000
H136  H     H_    0.863961 0.570939 0.507574 0.000000
H137  H     H_    0.831617 0.702164 0.281865 0.000000
H138  H     H_    0.776663 0.773178 0.247190 0.000000
H139  H     H_    0.733906 0.799847 0.314628 0.000000
H140  H     H_    0.736027 0.746191 0.414141 0.000000
C127  C     C_3   0.654036 0.452049 0.334093 0.000000
N43   N     N_3   0.700609 0.427013 0.350108 0.000000
C128  C     C_3   0.737975 0.459324 0.388037 0.000000
C129  C     C_R   0.792662 0.451984 0.385528 0.000000
N44   N     N_R   0.794749 0.397968 0.384710 0.000000
C130  C     C_R   0.845793 0.409113 0.365401 0.000000
C131  C     C_R   0.870616 0.371401 0.353355 0.000000
C132  C     C_R   0.923560 0.393204 0.333459 0.000000
C133  C     C_R   0.951491 0.451156 0.327504 0.000000
C134  C     C_R   0.925901 0.488323 0.339669 0.000000
C135  C     C_R   0.872522 0.466736 0.356980 0.000000
N45   N     N_R   0.839542 0.496463 0.367721 0.000000
H141  H     H_    0.664910 0.494740 0.303912 0.000000
H142  H     H_    0.620892 0.421883 0.314082 0.000000
H143  H     H_    0.644008 0.457353 0.373769 0.000000
H144  H     H_    0.719297 0.432721 0.313271 0.000000
H145  H     H_    0.738899 0.505777 0.374086 0.000000
H146  H     H_    0.724637 0.438726 0.431536 0.000000
H147  H     H_    0.850945 0.325712 0.360391 0.000000
H148  H     H_    0.943701 0.364693 0.323246 0.000000
H149  H     H_    0.993499 0.467348 0.313324 0.000000
H150  H     H_    0.947787 0.532631 0.336624 0.000000
C136  C     C_3   0.942634 0.831585 0.124620 0.000000
N46   N     N_3   0.899646 0.857619 0.131041 0.000000
C137  C     C_3   0.852795 0.810932 0.152278 0.000000
C138  C     C_R   0.802359 0.830840 0.148262 0.000000
N47   N     N_R   0.800006 0.884531 0.152530 0.000000
C139  C     C_R   0.745427 0.884384 0.130168 0.000000
C140  C     C_R   0.719495 0.929710 0.114167 0.000000
C141  C     C_R   0.663619 0.919883 0.090451 0.000000
C142  C     C_R   0.635166 0.866644 0.079500 0.000000
C143  C     C_R   0.662816 0.823240 0.091129 0.000000
C144  C     C_R   0.717852 0.833152 0.116194 0.000000
N48   N     N_R   0.752612 0.797701 0.128150 0.000000
H151  H     H_    0.984296 0.863567 0.123274 0.000000
H152  H     H_    0.945511 0.794273 0.160848 0.000000
H153  H     H_    0.930933 0.815592 0.085607 0.000000
H154  H     H_    0.884870 0.878066 0.090768 0.000000
H155  H     H_    0.839811 0.783297 0.122287 0.000000
H156  H     H_    0.862608 0.785101 0.195331 0.000000
H157  H     H_    0.742144 0.972562 0.119049 0.000000
H158  H     H_    0.642527 0.954508 0.078938 0.000000
H159  H     H_    0.591750 0.859626 0.060203 0.000000
H160  H     H_    0.641446 0.782326 0.081066 0.000000
C145  C     C_3   0.619462 0.746131 0.272113 0.000000
N49   N     N_3   0.622088 0.696924 0.252595 0.000000
C146  C     C_3   0.622705 0.716223 0.191537 0.000000
C147  C     C_R   0.614996 0.668872 0.162699 0.000000
N50   N     N_R   0.656735 0.669168 0.131761 0.000000
C148  C     C_R   0.628665 0.631903 0.099558 0.000000
C149  C     C_R   0.650454 0.608581 0.066646 0.000000
C150  C     C_R   0.614938 0.564857 0.043779 0.000000
C151  C     C_R   0.559104 0.544453 0.055001 0.000000
C152  C     C_R   0.537635 0.568516 0.087221 0.000000
C153  C     C_R   0.573610 0.611437 0.109874 0.000000
N51   N     N_R   0.563169 0.631353 0.151171 0.000000
H161  H     H_    0.624344 0.736146 0.319485 0.000000
H162  H     H_    0.653406 0.784307 0.254961 0.000000
H163  H     H_    0.578860 0.757531 0.255784 0.000000
H164  H     H_    0.586088 0.663830 0.261297 0.000000
H165  H     H_    0.589876 0.740268 0.172424 0.000000
H166  H     H_    0.665341 0.744026 0.184795 0.000000
H167  H     H_    0.694587 0.616748 0.065158 0.000000
H168  H     H_    0.631465 0.542820 0.021077 0.000000
H169  H     H_    0.533561 0.506217 0.042908 0.000000
H170  H     H_    0.494603 0.550865 0.097216 0.000000
C154  C     C_3   0.785842 0.518055 0.209965 0.000000
N52   N     N_3   0.749825 0.527357 0.245899 0.000000
C155  C     C_3   0.737744 0.583972 0.227036 0.000000
C156  C     C_R   0.790495 0.630646 0.227524 0.000000
N53   N     N_R   0.839909 0.619131 0.259688 0.000000
C157  C     C_R   0.877954 0.644562 0.221806 0.000000
C158  C     C_R   0.922284 0.623371 0.219654 0.000000
C159  C     C_R   0.950483 0.643560 0.171296 0.000000
C160  C     C_R   0.934708 0.685701 0.126775 0.000000
C161  C     C_R   0.886372 0.702330 0.127316 0.000000
C162  C     C_R   0.855671 0.677855 0.173985 0.000000
N54   N     N_R   0.799827 0.672555 0.177201 0.000000
H171  H     H_    0.773527 0.471837 0.209008 0.000000
H172  H     H_    0.781851 0.544714 0.165950 0.000000
H173  H     H_    0.830446 0.526571 0.228938 0.000000
H174  H     H_    0.771789 0.525416 0.286030 0.000000
H175  H     H_    0.716580 0.589871 0.183006 0.000000
H176  H     H_    0.708968 0.586898 0.254793 0.000000
H177  H     H_    0.930684 0.587248 0.252407 0.000000
H178  H     H_    0.983581 0.625177 0.167213 0.000000
H179  H     H_    0.956843 0.701154 0.088991 0.000000
H180  H     H_    0.871532 0.729844 0.089028 0.000000
C163  C     C_3   0.589157 0.782188 0.963593 0.000000
N55   N     N_3   0.626143 0.743155 0.976893 0.000000
C164  C     C_3   0.684227 0.777707 0.974334 0.000000
C165  C     C_R   0.723230 0.740284 0.983601 0.000000
N56   N     N_R   0.746597 0.715652 0.036776 0.000000
C166  C     C_R   0.783253 0.691776 0.023222 0.000000
C167  C     C_R   0.802683 0.644825 0.054761 0.000000
C168  C     C_R   0.841450 0.628682 0.032431 0.000000
C169  C     C_R   0.858782 0.659235 0.979113 0.000000
C170  C     C_R   0.832233 0.700675 0.945429 0.000000
C171  C     C_R   0.789123 0.710244 0.966971 0.000000
N57   N     N_R   0.747689 0.736004 0.939321 0.000000
H181  H     H_    0.554105 0.769570 0.931026 0.000000
H182  H     H_    0.570826 0.779346 0.002713 0.000000
H183  H     H_    0.612855 0.827643 0.947216 0.000000
H184  H     H_    0.618054 0.721856 0.944158 0.000000
H185  H     H_    0.689599 0.807914 0.931847 0.000000
H186  H     H_    0.696234 0.802252 0.007241 0.000000
H187  H     H_    0.789000 0.621864 0.096036 0.000000
H188  H     H_    0.859297 0.593346 0.057166 0.000000
H189  H     H_    0.890078 0.647989 0.962008 0.000000
H190  H     H_    0.843740 0.722372 0.902913 0.000000
C172  C     C_3   0.117278 0.074544 0.599668 0.000000
N58   N     N_3   0.148394 0.129142 0.566785 0.000000
C173  C     C_3   0.194339 0.154992 0.604122 0.000000
C174  C     C_R   0.226738 0.208543 0.568720 0.000000
N59   N     N_R   0.260683 0.207493 0.530023 0.000000
C175  C     C_R   0.265402 0.260648 0.494819 0.000000
C176  C     C_R   0.289563 0.281703 0.445083 0.000000
C177  C     C_R   0.275871 0.329703 0.406878 0.000000
C178  C     C_R   0.244304 0.359696 0.421569 0.000000
C179  C     C_R   0.223496 0.339679 0.473756 0.000000
C180  C     C_R   0.234190 0.289871 0.509500 0.000000
N60   N     N_R   0.211963 0.260259 0.558526 0.000000
H191  H     H_    0.083099 0.052976 0.571234 0.000000
H192  H     H_    0.146020 0.046110 0.619087 0.000000
H193  H     H_    0.098410 0.083035 0.633084 0.000000
H194  H     H_    0.121554 0.156721 0.555836 0.000000
H195  H     H_    0.176565 0.165880 0.636905 0.000000
H196  H     H_    0.222460 0.126012 0.623397 0.000000
H197  H     H_    0.313294 0.257290 0.434010 0.000000
H198  H     H_    0.288315 0.343541 0.364350 0.000000
H199  H     H_    0.236022 0.398567 0.392250 0.000000
H200  H     H_    0.204386 0.365713 0.487919 0.000000
C181  C     C_3   0.230172 0.985330 0.399138 0.000000
N61   N     N_3   0.231817 0.984822 0.458811 0.000000
C182  C     C_3   0.197635 0.019517 0.468015 0.000000
C183  C     C_R   0.207403 0.018168 0.529526 0.000000
N62   N     N_R   0.189338 0.968143 0.572470 0.000000
C184  C     C_R   0.224084 0.983238 0.618545 0.000000
C185  C     C_R   0.227955 0.951929 0.674333 0.000000
C186  C     C_R   0.270597 0.974057 0.713058 0.000000
C187  C     C_R   0.307441 0.028187 0.696616 0.000000
C188  C     C_R   0.301260 0.061139 0.641359 0.000000
C189  C     C_R   0.259467 0.037581 0.603599 0.000000
N63   N     N_R   0.249180 0.061917 0.548122 0.000000
H201  H     H_    0.201614 0.944820 0.390827 0.000000
H202  H     H_    0.218077 0.023891 0.370637 0.000000
H203  H     H_    0.272585 0.984714 0.391052 0.000000
H204  H     H_    0.273736 0.002865 0.472815 0.000000
H205  H     H_    0.211378 0.063976 0.443270 0.000000
H206  H     H_    0.152457 0.005020 0.455110 0.000000
H207  H     H_    0.199117 0.911660 0.688823 0.000000
H208  H     H_    0.274469 0.949285 0.756925 0.000000
H209  H     H_    0.340047 0.045215 0.727465 0.000000
H210  H     H_    0.328838 0.103853 0.628285 0.000000
C190  C     C_3   0.465322 0.315227 0.626345 0.000000
N64   N     N_3   0.434992 0.254855 0.633703 0.000000
C191  C     C_3   0.395675 0.245427 0.583707 0.000000
C192  C     C_R   0.418552 0.214936 0.553993 0.000000
N65   N     N_R   0.476593 0.218264 0.560456 0.000000
C193  C     C_R   0.475279 0.166582 0.551869 0.000000
C194  C     C_R   0.519620 0.141246 0.562551 0.000000
C195  C     C_R   0.507787 0.084465 0.558588 0.000000
C196  C     C_R   0.452525 0.054111 0.544964 0.000000
C197  C     C_R   0.408018 0.079965 0.535117 0.000000
C198  C     C_R   0.420513 0.136585 0.537973 0.000000
N66   N     N_R   0.383176 0.167310 0.536072 0.000000
H211  H     H_    0.455520 0.331837 0.658991 0.000000
H212  H     H_    0.511139 0.320518 0.630835 0.000000
H213  H     H_    0.452736 0.342625 0.585761 0.000000
H214  H     H_    0.411320 0.243634 0.668264 0.000000
H215  H     H_    0.355375 0.216037 0.598986 0.000000
H216  H     H_    0.386120 0.284610 0.553890 0.000000
H217  H     H_    0.561862 0.163729 0.576450 0.000000
H218  H     H_    0.541687 0.062971 0.567686 0.000000
H219  H     H_    0.444027 0.009406 0.543444 0.000000
H220  H     H_    0.364718 0.055377 0.528273 0.000000
C199  C     C_3   0.429393 0.103025 0.384745 0.000000
N67   N     N_3   0.392022 0.141673 0.370229 0.000000
C200  C     C_3   0.336442 0.109113 0.387401 0.000000
C201  C     C_R   0.298227 0.147616 0.377106 0.000000
N68   N     N_R   0.276666 0.155737 0.421737 0.000000
C202  C     C_R   0.236456 0.182510 0.393440 0.000000
C203  C     C_R   0.193534 0.192095 0.414684 0.000000
C204  C     C_R   0.167961 0.234436 0.380738 0.000000
C205  C     C_R   0.188960 0.267015 0.329213 0.000000
C206  C     C_R   0.227167 0.249850 0.306795 0.000000
C207  C     C_R   0.242350 0.200314 0.337150 0.000000
N69   N     N_R   0.275498 0.172974 0.323222 0.000000
H221  H     H_    0.455929 0.113165 0.349233 0.000000
H222  H     H_    0.457574 0.109675 0.424055 0.000000
H223  H     H_    0.404528 0.057201 0.391920 0.000000
H224  H     H_    0.388067 0.157547 0.325958 0.000000
H225  H     H_    0.317391 0.076813 0.362562 0.000000
H226  H     H_    0.340139 0.087788 0.433329 0.000000
H227  H     H_    0.183368 0.170318 0.457612 0.000000
H228  H     H_    0.136244 0.246358 0.396802 0.000000
H229  H     H_    0.173323 0.304033 0.305142 0.000000
H230  H     H_    0.240890 0.272399 0.265441 0.000000
C208  C     C_3   0.668670 0.606726 0.338692 0.000000
N70   N     N_3   0.656978 0.633669 0.379110 0.000000
C209  C     C_3   0.658940 0.594225 0.434871 0.000000
C210  C     C_R   0.641370 0.617003 0.476436 0.000000
N71   N     N_R   0.677007 0.650135 0.511222 0.000000
C211  C     C_R   0.640157 0.663005 0.537383 0.000000
C212  C     C_R   0.650941 0.701153 0.571974 0.000000
C213  C     C_R   0.606199 0.709361 0.592019 0.000000
C214  C     C_R   0.551744 0.682307 0.574756 0.000000
C215  C     C_R   0.541140 0.649809 0.535401 0.000000
C216  C     C_R   0.585989 0.637653 0.519710 0.000000
N72   N     N_R   0.585521 0.606061 0.482942 0.000000
H231  H     H_    0.693696 0.640471 0.306353 0.000000
H232  H     H_    0.693193 0.574767 0.360600 0.000000
H233  H     H_    0.628608 0.585650 0.316657 0.000000
H234  H     H_    0.615583 0.637860 0.368394 0.000000
H235  H     H_    0.628490 0.552606 0.432986 0.000000
H236  H     H_    0.701207 0.586956 0.448865 0.000000
H237  H     H_    0.692492 0.726722 0.582223 0.000000
H238  H     H_    0.613785 0.737869 0.620282 0.000000
H239  H     H_    0.517011 0.688084 0.590388 0.000000
H240  H     H_    0.498724 0.638431 0.516221 0.000000
C217  C     C_3   0.914321 0.781532 0.438013 0.000000
N73   N     N_3   0.885116 0.818104 0.449320 0.000000
C218  C     C_3   0.873518 0.795329 0.507644 0.000000
C219  C     C_R   0.822408 0.809172 0.510218 0.000000
N74   N     N_R   0.817149 0.864606 0.500213 0.000000
C220  C     C_R   0.760202 0.853989 0.501103 0.000000
C221  C     C_R   0.727158 0.887254 0.507995 0.000000
C222  C     C_R   0.669217 0.870793 0.494089 0.000000
C223  C     C_R   0.645803 0.823234 0.471302 0.000000
C224  C     C_R   0.679066 0.787549 0.470758 0.000000
C225  C     C_R   0.734437 0.799738 0.495464 0.000000
N75   N     N_R   0.772872 0.768219 0.506700 0.000000
H241  H     H_    0.929269 0.803967 0.396795 0.000000
H242  H     H_    0.949218 0.775709 0.472273 0.000000
H243  H     H_    0.885754 0.739637 0.434368 0.000000
H244  H     H_    0.846763 0.814234 0.423304 0.000000
H245  H     H_    0.863102 0.748352 0.518384 0.000000
H246  H     H_    0.908460 0.811631 0.538006 0.000000
H247  H     H_    0.744072 0.924309 0.524442 0.000000
H248  H     H_    0.642810 0.897178 0.497716 0.000000
H249  H     H_    0.601306 0.812927 0.455729 0.000000
H250  H     H_    0.660892 0.750950 0.452321 0.000000
C226  C     C_3   0.521379 0.634072 0.933152 0.000000
N76   N     N_3   0.548185 0.600525 0.911784 0.000000
C227  C     C_3   0.520582 0.538994 0.927959 0.000000
C228  C     C_R   0.504378 0.515165 0.876997 0.000000
N77   N     N_R   0.493276 0.551096 0.824833 0.000000
C229  C     C_R   0.505214 0.527282 0.788375 0.000000
C230  C     C_R   0.507325 0.550848 0.731464 0.000000
C231  C     C_R   0.523992 0.520943 0.701935 0.000000
C232  C     C_R   0.530525 0.466060 0.728674 0.000000
C233  C     C_R   0.528789 0.444017 0.786388 0.000000
C234  C     C_R   0.520465 0.477881 0.816399 0.000000
N78   N     N_R   0.517249 0.465493 0.873306 0.000000
H251  H     H_    0.529241 0.678724 0.906888 0.000000
H252  H     H_    0.475508 0.617121 0.931642 0.000000
H253  H     H_    0.540583 0.635888 0.976718 0.000000
H254  H     H_    0.588698 0.606555 0.933528 0.000000
H255  H     H_    0.550945 0.515571 0.955587 0.000000
H256  H     H_    0.482915 0.533395 0.948016 0.000000
H257  H     H_    0.502602 0.593737 0.711505 0.000000
H258  H     H_    0.532580 0.541183 0.658258 0.000000
H259  H     H_    0.541403 0.441317 0.705218 0.000000
H260  H     H_    0.536269 0.403222 0.807447 0.000000
C235  C     C_3   0.648829 0.551590 0.822893 0.000000
N79   N     N_3   0.613814 0.585221 0.832226 0.000000
C236  C     C_3   0.619318 0.640661 0.790790 0.000000
C237  C     C_R   0.599662 0.681162 0.812442 0.000000
N80   N     N_R   0.543556 0.686259 0.801161 0.000000
C238  C     C_R   0.551292 0.741378 0.804684 0.000000
C239  C     C_R   0.512503 0.774153 0.789215 0.000000
C240  C     C_R   0.530210 0.830941 0.793780 0.000000
C241  C     C_R   0.586243 0.854548 0.812081 0.000000
C242  C     C_R   0.625534 0.821895 0.825318 0.000000
C243  C     C_R   0.607070 0.765297 0.821557 0.000000
N81   N     N_R   0.639234 0.728009 0.828329 0.000000
H261  H     H_    0.663295 0.525730 0.864639 0.000000
H262  H     H_    0.624473 0.520758 0.798160 0.000000
H263  H     H_    0.684698 0.579413 0.799278 0.000000
H264  H     H_    0.628873 0.593646 0.871488 0.000000
H265  H     H_    0.663878 0.661255 0.782142 0.000000
H266  H     H_    0.593741 0.635620 0.750154 0.000000
H267  H     H_    0.470517 0.757870 0.770116 0.000000
H268  H     H_    0.500472 0.857648 0.781456 0.000000
H269  H     H_    0.599638 0.899283 0.814440 0.000000
H270  H     H_    0.669515 0.841120 0.836874 0.000000
C244  C     C_3   0.340842 0.711094 0.766368 0.000000
N82   N     N_3   0.332211 0.702076 0.825868 0.000000
C245  C     C_3   0.382926 0.690268 0.861800 0.000000
C246  C     C_R   0.377075 0.627493 0.879365 0.000000
N83   N     N_R   0.341518 0.587492 0.918895 0.000000
C247  C     C_R   0.346444 0.537831 0.912471 0.000000
C248  C     C_R   0.319436 0.483702 0.939482 0.000000
C249  C     C_R   0.311690 0.441266 0.911636 0.000000
C250  C     C_R   0.335245 0.452797 0.862469 0.000000
C251  C     C_R   0.374404 0.504048 0.844655 0.000000
C252  C     C_R   0.379352 0.546814 0.870733 0.000000
N84   N     N_R   0.403583 0.603090 0.851256 0.000000
H271  H     H_    0.299506 0.709624 0.739856 0.000000
H272  H     H_    0.370451 0.753957 0.751701 0.000000
H273  H     H_    0.357750 0.676460 0.761021 0.000000
H274  H     H_    0.299257 0.664679 0.835044 0.000000
H275  H     H_    0.419530 0.709532 0.837255 0.000000
H276  H     H_    0.393041 0.709160 0.898966 0.000000
H277  H     H_    0.305328 0.474859 0.980711 0.000000
H278  H     H_    0.282680 0.400629 0.923398 0.000000
H279  H     H_    0.321605 0.420428 0.839184 0.000000
H280  H     H_    0.393769 0.512726 0.806375 0.000000
C253  C     C_3   0.301886 0.751161 0.595621 0.000000
N85   N     N_3   0.282167 0.737594 0.540408 0.000000
C254  C     C_3   0.243720 0.680422 0.549649 0.000000
C255  C     C_R   0.237380 0.655941 0.499375 0.000000
N86   N     N_R   0.195217 0.662872 0.454130 0.000000
C256  C     C_R   0.192781 0.619276 0.430794 0.000000
C257  C     C_R   0.153565 0.601404 0.388865 0.000000
C258  C     C_R   0.154238 0.551841 0.374120 0.000000
C259  C     C_R   0.193476 0.520782 0.402593 0.000000
C260  C     C_R   0.232329 0.539157 0.445781 0.000000
C261  C     C_R   0.231545 0.589274 0.458552 0.000000
N87   N     N_R   0.261314 0.611177 0.502382 0.000000
H281  H     H_    0.329289 0.795933 0.589188 0.000000
H282  H     H_    0.264803 0.747416 0.617323 0.000000
H283  H     H_    0.326890 0.721249 0.622777 0.000000
H284  H     H_    0.316617 0.737722 0.521365 0.000000
H285  H     H_    0.260701 0.651647 0.587813 0.000000
H286  H     H_    0.201583 0.682631 0.556450 0.000000
H287  H     H_    0.123749 0.626237 0.368460 0.000000
H288  H     H_    0.123702 0.536701 0.340843 0.000000
H289  H     H_    0.193186 0.481614 0.391497 0.000000
H290  H     H_    0.262014 0.514322 0.468646 0.000000
C262  C     C_3   0.341773 0.668065 0.354304 0.000000
N88   N     N_3   0.372769 0.650379 0.409578 0.000000
C263  C     C_3   0.374639 0.590900 0.417182 0.000000
C264  C     C_R   0.401322 0.568529 0.475421 0.000000
N89   N     N_R   0.451929 0.553094 0.484190 0.000000
C265  C     C_R   0.455846 0.528981 0.539855 0.000000
C266  C     C_R   0.494740 0.500392 0.568116 0.000000
C267  C     C_R   0.476652 0.454462 0.611403 0.000000
C268  C     C_R   0.431021 0.452548 0.637880 0.000000
C269  C     C_R   0.402307 0.495823 0.618331 0.000000
C270  C     C_R   0.411633 0.529510 0.564211 0.000000
N90   N     N_R   0.375831 0.555475 0.525146 0.000000
H291  H     H_    0.342363 0.714329 0.346304 0.000000
H292  H     H_    0.361965 0.662345 0.320064 0.000000
H293  H     H_    0.297148 0.641805 0.353924 0.000000
H294  H     H_    0.349207 0.651079 0.440536 0.000000
H295  H     H_    0.331788 0.563157 0.410247 0.000000
H296  H     H_    0.399216 0.588229 0.385040 0.000000
H297  H     H_    0.536130 0.510270 0.555030 0.000000
H298  H     H_    0.502037 0.424048 0.627405 0.000000
H299  H     H_    0.420074 0.417885 0.674841 0.000000
H300  H     H_    0.365438 0.492957 0.637884 0.000000
C271  C     C_3   0.341795 0.329192 0.621276 0.000000
N91   N     N_3   0.303718 0.360056 0.627675 0.000000
C272  C     C_3   0.297642 0.401125 0.574252 0.000000
C273  C     C_R   0.249933 0.422999 0.576019 0.000000
N92   N     N_R   0.195806 0.387267 0.577538 0.000000
C274  C     C_R   0.165013 0.425594 0.572370 0.000000
C275  C     C_R   0.107078 0.417022 0.566379 0.000000
C276  C     C_R   0.086194 0.458938 0.576028 0.000000
C277  C     C_R   0.123274 0.509547 0.586792 0.000000
C278  C     C_R   0.179801 0.521362 0.581724 0.000000
C279  C     C_R   0.199774 0.478553 0.574875 0.000000
N93   N     N_R   0.254326 0.479689 0.576028 0.000000
H301  H     H_    0.369872 0.356619 0.588162 0.000000
H302  H     H_    0.366821 0.318670 0.662822 0.000000
H303  H     H_    0.317018 0.289045 0.609211 0.000000
H304  H     H_    0.324648 0.384840 0.656043 0.000000
H305  H     H_    0.334852 0.435902 0.565320 0.000000
H306  H     H_    0.293101 0.381576 0.539219 0.000000
H307  H     H_    0.078600 0.377485 0.558802 0.000000
H308  H     H_    0.041202 0.450663 0.577977 0.000000
H309  H     H_    0.109759 0.540457 0.600462 0.000000
H310  H     H_    0.207925 0.560383 0.590287 0.000000
C280  C     C_3   0.229509 0.485083 0.710951 0.000000
N94   N     N_3   0.267587 0.540196 0.686581 0.000000
C281  C     C_3   0.321459 0.543383 0.721238 0.000000
C282  C     C_R   0.367496 0.583239 0.687472 0.000000
N95   N     N_R   0.356922 0.599099 0.628437 0.000000
C283  C     C_R   0.395418 0.650416 0.615791 0.000000
C284  C     C_R   0.400874 0.688446 0.563161 0.000000
C285  C     C_R   0.436234 0.743441 0.560659 0.000000
C286  C     C_R   0.467917 0.757706 0.609844 0.000000
C287  C     C_R   0.465769 0.716627 0.661694 0.000000
C288  C     C_R   0.428193 0.663506 0.663915 0.000000
N96   N     N_R   0.414375 0.620429 0.710836 0.000000
H311  H     H_    0.185501 0.489801 0.703881 0.000000
H312  H     H_    0.231722 0.451813 0.690117 0.000000
H313  H     H_    0.241289 0.470466 0.757474 0.000000
H314  H     H_    0.251596 0.573148 0.690805 0.000000
H315  H     H_    0.320108 0.560817 0.757663 0.000000
H316  H     H_    0.328181 0.500033 0.734564 0.000000
H317  H     H_    0.375546 0.677223 0.525551 0.000000
H318  H     H_    0.439531 0.775319 0.520156 0.000000
H319  H     H_    0.496127 0.800409 0.607155 0.000000
H320  H     H_    0.492103 0.726628 0.698991 0.000000
C289  C     C_3   0.114979 0.687094 0.617359 0.000000
N97   N     N_3   0.072360 0.719886 0.599201 0.000000
C290  C     C_3   0.065983 0.742545 0.537454 0.000000
C291  C     C_R   0.120190 0.780719 0.516192 0.000000
N98   N     N_R   0.149699 0.829171 0.536416 0.000000
C292  C     C_R   0.199726 0.842387 0.514896 0.000000
C293  C     C_R   0.249330 0.880329 0.528782 0.000000
C294  C     C_R   0.295503 0.888688 0.499639 0.000000
C295  C     C_R   0.291102 0.859430 0.457618 0.000000
C296  C     C_R   0.241728 0.818424 0.446966 0.000000
C297  C     C_R   0.197415 0.808952 0.478292 0.000000
N99   N     N_R   0.147519 0.768604 0.477554 0.000000
H321  H     H_    0.113248 0.665575 0.663527 0.000000
H322  H     H_    0.106171 0.653227 0.593875 0.000000
H323  H     H_    0.157934 0.716076 0.611574 0.000000
H324  H     H_    0.085260 0.754847 0.617767 0.000000
H325  H     H_    0.051747 0.706962 0.515661 0.000000
H326  H     H_    0.033815 0.767667 0.527814 0.000000
H327  H     H_    0.252344 0.903580 0.560770 0.000000
H328  H     H_    0.334948 0.919164 0.508839 0.000000
H329  H     H_    0.327269 0.867002 0.434744 0.000000
H330  H     H_    0.239584 0.792847 0.417235 0.000000
C298  C     C_3   0.026426 0.788674 0.400291 0.000000
N100  N     N_3   0.071820 0.780449 0.378031 0.000000
C299  C     C_3   0.106523 0.835022 0.350458 0.000000
C300  C     C_R   0.137031 0.818903 0.316302 0.000000
N101  N     N_R   0.155657 0.769724 0.339320 0.000000
C301  C     C_R   0.178816 0.766167 0.295063 0.000000
C302  C     C_R   0.211410 0.729885 0.295448 0.000000
C303  C     C_R   0.235889 0.737576 0.246223 0.000000
C304  C     C_R   0.229385 0.782416 0.198945 0.000000
C305  C     C_R   0.196834 0.818923 0.199747 0.000000
C306  C     C_R   0.170330 0.809099 0.247498 0.000000
N102  N     N_R   0.142460 0.843687 0.258917 0.000000
H331  H     H_    0.995988 0.745978 0.413081 0.000000
H332  H     H_    0.042284 0.808154 0.436409 0.000000
H333  H     H_    0.007141 0.818752 0.367086 0.000000
H334  H     H_    0.053302 0.760855 0.344976 0.000000
H335  H     H_    0.082220 0.864229 0.321775 0.000000
H336  H     H_    0.137085 0.854374 0.382511 0.000000
H337  H     H_    0.220736 0.698655 0.333571 0.000000
H338  H     H_    0.262565 0.710319 0.245551 0.000000
H339  H     H_    0.251392 0.790024 0.161936 0.000000
H340  H     H_    0.197091 0.857891 0.166716 0.000000
C307  C     C_3   0.536365 0.421012 0.372343 0.000000
N103  N     N_3   0.542331 0.479973 0.374547 0.000000
C308  C     C_3   0.515149 0.503533 0.320747 0.000000
C309  C     C_R   0.505154 0.558787 0.317429 0.000000
N104  N     N_R   0.507625 0.579808 0.364212 0.000000
C310  C     C_R   0.496217 0.631612 0.339444 0.000000
C311  C     C_R   0.496560 0.673796 0.365634 0.000000
C312  C     C_R   0.482973 0.723786 0.331516 0.000000
C313  C     C_R   0.470145 0.730907 0.272599 0.000000
C314  C     C_R   0.472572 0.688937 0.246602 0.000000
C315  C     C_R   0.485114 0.639316 0.281344 0.000000
N105  N     N_R   0.490996 0.593772 0.265535 0.000000
H341  H     H_    0.564377 0.399974 0.406828 0.000000
H342  H     H_    0.492855 0.395975 0.375282 0.000000
H343  H     H_    0.542514 0.420778 0.329433 0.000000
H344  H     H_    0.584619 0.501879 0.374206 0.000000
H345  H     H_    0.543115 0.510554 0.287566 0.000000
H346  H     H_    0.473224 0.474180 0.317367 0.000000
H347  H     H_    0.506314 0.668046 0.411285 0.000000
H348  H     H_    0.482059 0.757507 0.350923 0.000000
H349  H     H_    0.459865 0.770302 0.246686 0.000000
H350  H     H_    0.464952 0.695111 0.200652 0.000000
C316  C     C_3   0.661608 0.472324 0.144071 0.000000
N106  N     N_3   0.600847 0.461411 0.143130 0.000000
C317  C     C_3   0.589822 0.483665 0.187567 0.000000
C318  C     C_R   0.528318 0.464074 0.195116 0.000000
N107  N     N_R   0.493367 0.499053 0.195189 0.000000
C319  C     C_R   0.448803 0.460657 0.219017 0.000000
C320  C     C_R   0.401931 0.472163 0.230997 0.000000
C321  C     C_R   0.366357 0.428825 0.266249 0.000000
C322  C     C_R   0.381750 0.377833 0.292202 0.000000
C323  C     C_R   0.430512 0.368247 0.280913 0.000000
C324  C     C_R   0.459370 0.408065 0.238488 0.000000
N108  N     N_R   0.505552 0.406579 0.217648 0.000000
H351  H     H_    0.671013 0.457745 0.108876 0.000000
H352  H     H_    0.681754 0.518774 0.137901 0.000000
H353  H     H_    0.678627 0.448686 0.185638 0.000000
H354  H     H_    0.585817 0.416882 0.155650 0.000000
H355  H     H_    0.611979 0.464262 0.227115 0.000000
H356  H     H_    0.607261 0.530499 0.180926 0.000000
H357  H     H_    0.394645 0.514015 0.216557 0.000000
H358  H     H_    0.328126 0.435530 0.275781 0.000000
H359  H     H_    0.353024 0.343082 0.317782 0.000000
H360  H     H_    0.440584 0.327718 0.298466 0.000000
C325  C     C_3   0.456841 0.719871 0.040407 0.000000
N109  N     N_3   0.477250 0.668363 0.050065 0.000000
C326  C     C_3   0.433585 0.624011 0.027708 0.000000
C327  C     C_R   0.393031 0.593482 0.070280 0.000000
N110  N     N_R   0.410720 0.593547 0.127637 0.000000
C328  C     C_R   0.364314 0.601538 0.143620 0.000000
C329  C     C_R   0.356492 0.607316 0.195788 0.000000
C330  C     C_R   0.309061 0.624128 0.199847 0.000000
C331  C     C_R   0.272205 0.637907 0.151640 0.000000
C332  C     C_R   0.279460 0.629580 0.100178 0.000000
C333  C     C_R   0.322567 0.605589 0.098837 0.000000
N111  N     N_R   0.336915 0.594864 0.053049 0.000000
H361  H     H_    0.488456 0.751353 0.061744 0.000000
H362  H     H_    0.451868 0.740141 0.993891 0.000000
H363  H     H_    0.416092 0.709298 0.058722 0.000000
H364  H     H_    0.511749 0.680795 0.026414 0.000000
H365  H     H_    0.411084 0.644959 0.988330 0.000000
H366  H     H_    0.451062 0.592323 0.018119 0.000000
H367  H     H_    0.385204 0.597928 0.233161 0.000000
H368  H     H_    0.301996 0.628956 0.240328 0.000000
H369  H     H_    0.237695 0.655251 0.154285 0.000000
H370  H     H_    0.253646 0.644537 0.061693 0.000000
C334  C     C_3   0.661197 0.517259 0.593376 0.000000
N112  N     N_3   0.640417 0.502153 0.539505 0.000000
C335  C     C_3   0.616968 0.440966 0.551279 0.000000
C336  C     C_R   0.562344 0.425178 0.518568 0.000000
N113  N     N_R   0.536929 0.367172 0.523596 0.000000
C337  C     C_R   0.487801 0.369816 0.491136 0.000000
C338  C     C_R   0.452720 0.327809 0.467721 0.000000
C339  C     C_R   0.409456 0.342004 0.428441 0.000000
C340  C     C_R   0.399235 0.396507 0.416156 0.000000
C341  C     C_R   0.436440 0.439113 0.438235 0.000000
C342  C     C_R   0.482125 0.424996 0.472775 0.000000
N114  N     N_R   0.529882 0.462766 0.485359 0.000000
H371  H     H_    0.681812 0.563647 0.585274 0.000000
H372  H     H_    0.625968 0.506408 0.620170 0.000000
H373  H     H_    0.695275 0.496359 0.614616 0.000000
H374  H     H_    0.676868 0.508319 0.520602 0.000000
H375  H     H_    0.646067 0.421689 0.538096 0.000000
H376  H     H_    0.608697 0.423245 0.596450 0.000000
H377  H     H_    0.464246 0.288768 0.471627 0.000000
H378  H     H_    0.388494 0.311834 0.403044 0.000000
H379  H     H_    0.367130 0.409315 0.383673 0.000000
H380  H     H_    0.433055 0.483011 0.422247 0.000000
C343  C     C_3   0.202084 0.069442 0.735527 0.000000
N115  N     N_3   0.203823 0.050572 0.797185 0.000000
C344  C     C_3   0.176638 0.084261 0.818378 0.000000
C345  C     C_R   0.197868 0.078739 0.878634 0.000000
N116  N     N_R   0.194544 0.024839 0.915529 0.000000
C346  C     C_R   0.236756 0.036351 0.956730 0.000000
C347  C     C_R   0.251403 0.999926 0.007605 0.000000
C348  C     C_R   0.299668 0.020772 0.041097 0.000000
C349  C     C_R   0.328523 0.078512 0.026275 0.000000
C350  C     C_R   0.306645 0.115582 0.980172 0.000000
C351  C     C_R   0.262623 0.093716 0.945007 0.000000
N117  N     N_R   0.238005 0.123080 0.896983 0.000000
H381  H     H_    0.168046 0.091545 0.717792 0.000000
H382  H     H_    0.243258 0.097743 0.722907 0.000000
H383  H     H_    0.195033 0.031741 0.717842 0.000000
H384  H     H_    0.246467 0.058770 0.813597 0.000000
H385  H     H_    0.187764 0.129864 0.795415 0.000000
H386  H     H_    0.130384 0.067962 0.814759 0.000000
H387  H     H_    0.227629 0.955811 0.021293 0.000000
H388  H     H_    0.313708 0.992521 0.079895 0.000000
H389  H     H_    0.364650 0.095579 0.053961 0.000000
H390  H     H_    0.320543 0.160794 0.973033 0.000000
C352  C     C_3   0.997262 0.893980 0.013153 0.000000
N118  N     N_3   0.016637 0.914416 0.957456 0.000000
C353  C     C_3   0.997278 0.965012 0.930248 0.000000
C354  C     C_R   0.013612 0.983992 0.874275 0.000000
N119  N     N_R   0.062268 0.972096 0.868694 0.000000
C355  C     C_R   0.055465 0.971505 0.813577 0.000000
C356  C     C_R   0.093129 0.963455 0.784166 0.000000
C357  C     C_R   0.082503 0.977066 0.725610 0.000000
C358  C     C_R   0.031485 0.989206 0.699769 0.000000
C359  C     C_R   0.989035 0.984281 0.732006 0.000000
C360  C     C_R   0.004692 0.982101 0.788062 0.000000
N120  N     N_R   0.975788 0.990809 0.824908 0.000000
H391  H     H_    0.013594 0.856333 0.037001 0.000000
H392  H     H_    0.010989 0.928476 0.036600 0.000000
H393  H     H_    0.951118 0.879988 0.007274 0.000000
H394  H     H_    0.989795 0.885123 0.935620 0.000000
H395  H     H_    0.953013 0.948763 0.922599 0.000000
H396  H     H_    0.015030 0.999682 0.953069 0.000000
H397  H     H_    0.131643 0.951774 0.805260 0.000000
H398  H     H_    0.112279 0.974727 0.699689 0.000000
H399  H     H_    0.023456 0.999044 0.654083 0.000000
H400  H     H_    0.947072 0.987776 0.712948 0.000000
C361  C     C_3   0.096191 0.741425 0.104622 0.000000
N121  N     N_3   0.084367 0.796594 0.099936 0.000000
C362  C     C_3   0.128278 0.841799 0.069307 0.000000
C363  C     C_R   0.123374 0.900699 0.067027 0.000000
N122  N     N_R   0.121239 0.940538 0.014424 0.000000
C364  C     C_R   0.121085 0.987665 0.030156 0.000000
C365  C     C_R   0.122906 0.042093 0.996553 0.000000
C366  C     C_R   0.131986 0.085143 0.024601 0.000000
C367  C     C_R   0.131490 0.072365 0.082727 0.000000
C368  C     C_R   0.121340 0.016854 0.113426 0.000000
C369  C     C_R   0.121216 0.976298 0.087386 0.000000
N123  N     N_R   0.122531 0.922170 0.114106 0.000000
H401  H     H_    0.056724 0.706369 0.110833 0.000000
H402  H     H_    0.112926 0.741885 0.065305 0.000000
H403  H     H_    0.127940 0.732669 0.141552 0.000000
H404  H     H_    0.087023 0.801907 0.141220 0.000000
H405  H     H_    0.170938 0.835916 0.086505 0.000000
H406  H     H_    0.123019 0.838703 0.024734 0.000000
H407  H     H_    0.119155 0.051720 0.950606 0.000000
H408  H     H_    0.139964 0.129347 0.002804 0.000000
H409  H     H_    0.136519 0.105703 0.104320 0.000000
H410  H     H_    0.113195 0.005931 0.156524 0.000000
C370  C     C_3   0.975092 0.768884 0.967322 0.000000
N124  N     N_3   0.033285 0.802522 0.960929 0.000000
C371  C     C_3   0.040142 0.819722 0.900380 0.000000
C372  C     C_R   0.101619 0.833217 0.892622 0.000000
N125  N     N_R   0.139664 0.877680 0.913644 0.000000
C373  C     C_R   0.183824 0.854623 0.936641 0.000000
C374  C     C_R   0.233500 0.878146 0.965400 0.000000
C375  C     C_R   0.264037 0.841025 0.001073 0.000000
C376  C     C_R   0.243073 0.781735 0.007759 0.000000
C377  C     C_R   0.196185 0.760187 0.972762 0.000000
C378  C     C_R   0.171505 0.799270 0.932291 0.000000
N126  N     N_R   0.123958 0.787362 0.896944 0.000000
H411  H     H_    0.962060 0.771736 0.007146 0.000000
H412  H     H_    0.946101 0.785930 0.930983 0.000000
H413  H     H_    0.972310 0.723173 0.969679 0.000000
H414  H     H_    0.058149 0.773519 0.979899 0.000000
H415  H     H_    0.014506 0.782339 0.884316 0.000000
H416  H     H_    0.023358 0.857313 0.877721 0.000000
H417  H     H_    0.249728 0.923987 0.957528 0.000000
H418  H     H_    0.303042 0.858036 0.025372 0.000000
H419  H     H_    0.264847 0.752522 0.038627 0.000000
H420  H     H_    0.179168 0.714128 0.977955 0.000000
C379  C     C_3   0.476317 0.304704 0.765984 0.000000
N127  N     N_3   0.497590 0.299278 0.825504 0.000000
C380  C     C_3   0.555599 0.296779 0.830271 0.000000
C381  C     C_R   0.596202 0.331232 0.867401 0.000000
N128  N     N_R   0.581181 0.356223 0.904505 0.000000
C382  C     C_R   0.631135 0.372817 0.934843 0.000000
C383  C     C_R   0.642019 0.400758 0.978031 0.000000
C384  C     C_R   0.695032 0.406480 0.008384 0.000000
C385  C     C_R   0.736410 0.387219 0.993343 0.000000
C386  C     C_R   0.726153 0.365380 0.945519 0.000000
C387  C     C_R   0.673136 0.358515 0.917099 0.000000
N129  N     N_R   0.653773 0.335073 0.871981 0.000000
H421  H     H_    0.430904 0.304315 0.760126 0.000000
H422  H     H_    0.499769 0.346017 0.740078 0.000000
H423  H     H_    0.480954 0.267691 0.752015 0.000000
H424  H     H_    0.475596 0.257508 0.844603 0.000000
H425  H     H_    0.555250 0.251675 0.851400 0.000000
H426  H     H_    0.570582 0.312985 0.787669 0.000000
H427  H     H_    0.610743 0.417319 0.988816 0.000000
H428  H     H_    0.704743 0.427054 0.043512 0.000000
H429  H     H_    0.777666 0.391681 0.017706 0.000000
H430  H     H_    0.757438 0.351151 0.932729 0.000000
C388  C     C_3   0.611294 0.221812 0.087656 0.000000
N130  N     N_3   0.599293 0.273132 0.094786 0.000000
C389  C     C_3   0.547049 0.280145 0.059983 0.000000
C390  C     C_R   0.530895 0.333704 0.059955 0.000000
N131  N     N_R   0.517501 0.345618 0.108011 0.000000
C391  C     C_R   0.485405 0.382339 0.082528 0.000000
C392  C     C_R   0.449379 0.396163 0.108343 0.000000
C393  C     C_R   0.424493 0.439465 0.079264 0.000000
C394  C     C_R   0.425027 0.456409 0.021173 0.000000
C395  C     C_R   0.447023 0.427616 0.992891 0.000000
C396  C     C_R   0.482404 0.395091 0.025145 0.000000
N132  N     N_R   0.511254 0.366064 0.008079 0.000000
H431  H     H_    0.644616 0.209328 0.121556 0.000000
H432  H     H_    0.572702 0.185380 0.090619 0.000000
H433  H     H_    0.626937 0.231448 0.045250 0.000000
H434  H     H_    0.631222 0.307367 0.075748 0.000000
H435  H     H_    0.554209 0.284672 0.015639 0.000000
H436  H     H_    0.511546 0.242021 0.073638 0.000000
H437  H     H_    0.439474 0.371389 0.149100 0.000000
H438  H     H_    0.400853 0.456607 0.100433 0.000000
H439  H     H_    0.408660 0.492500 0.999216 0.000000
H440  H     H_    0.439631 0.433646 0.947234 0.000000
C397  C     C_3   0.495578 0.174853 0.963018 0.000000
N133  N     N_3   0.480136 0.226895 0.963149 0.000000
C398  C     C_3   0.418976 0.217205 0.952562 0.000000
C399  C     C_R   0.399689 0.265156 0.907597 0.000000
N134  N     N_R   0.433994 0.321090 0.892802 0.000000
C400  C     C_R   0.404253 0.342990 0.844885 0.000000
C401  C     C_R   0.412334 0.398173 0.815886 0.000000
C402  C     C_R   0.380476 0.413241 0.765562 0.000000
C403  C     C_R   0.327147 0.378418 0.759148 0.000000
C404  C     C_R   0.314027 0.327392 0.799087 0.000000
C405  C     C_R   0.354717 0.306441 0.834578 0.000000
N135  N     N_R   0.346228 0.257381 0.875092 0.000000
H441  H     H_    0.473177 0.137486 0.995075 0.000000
H442  H     H_    0.485067 0.166304 0.919741 0.000000
H443  H     H_    0.541958 0.181217 0.974606 0.000000
H444  H     H_    0.500940 0.261003 0.932742 0.000000
H445  H     H_    0.401958 0.177404 0.936814 0.000000
H446  H     H_    0.403783 0.212165 0.994086 0.000000
H447  H     H_    0.426585 0.428323 0.840849 0.000000
H448  H     H_    0.391216 0.457153 0.740741 0.000000
H449  H     H_    0.293945 0.395543 0.731614 0.000000
H450  H     H_    0.274940 0.313270 0.814219 0.000000
C406  C     C_3   0.929511 0.120952 0.317595 0.000000
N136  N     N_3   0.896927 0.061119 0.334842 0.000000
C407  C     C_3   0.916472 0.025790 0.308070 0.000000
C408  C     C_R   0.876074 0.968444 0.314765 0.000000
N137  N     N_R   0.849967 0.942982 0.364862 0.000000
C409  C     C_R   0.797262 0.917584 0.343606 0.000000
C410  C     C_R   0.747522 0.903478 0.367535 0.000000
C411  C     C_R   0.695877 0.890861 0.335494 0.000000
C412  C     C_R   0.694250 0.897739 0.277660 0.000000
C413  C     C_R   0.744511 0.915907 0.253529 0.000000
C414  C     C_R   0.794827 0.922871 0.286576 0.000000
N138  N     N_R   0.844790 0.951880 0.266666 0.000000
H451  H     H_    0.915383 0.148078 0.338283 0.000000
H452  H     H_    0.975142 0.124365 0.331269 0.000000
H453  H     H_    0.923007 0.137404 0.270575 0.000000
H454  H     H_    0.854882 0.059776 0.318287 0.000000
H455  H     H_    0.914535 0.044605 0.262028 0.000000
H456  H     H_    0.959885 0.022816 0.325548 0.000000
H457  H     H_    0.747577 0.911470 0.406832 0.000000
H458  H     H_    0.656903 0.882014 0.354306 0.000000
H459  H     H_    0.654277 0.894139 0.250979 0.000000
H460  H     H_    0.745408 0.934477 0.209957 0.000000
C415  C     C_3   0.773974 0.014109 0.432344 0.000000
N139  N     N_3   0.773577 0.041111 0.477690 0.000000
C416  C     C_3   0.819108 0.030855 0.522739 0.000000
C417  C     C_R   0.874679 0.049524 0.500237 0.000000
N140  N     N_R   0.895279 0.017481 0.474253 0.000000
C418  C     C_R   0.948280 0.051026 0.466648 0.000000
C419  C     C_R   0.987836 0.044006 0.438592 0.000000
C420  C     C_R   0.039594 0.084079 0.434992 0.000000
C421  C     C_R   0.052144 0.127466 0.463167 0.000000
C422  C     C_R   0.013232 0.131333 0.494410 0.000000
C423  C     C_R   0.959673 0.096791 0.490117 0.000000
N141  N     N_R   0.913513 0.098870 0.510100 0.000000
H461  H     H_    0.730060 0.000609 0.412284 0.000000
H462  H     H_    0.801068 0.043607 0.399523 0.000000
H463  H     H_    0.792555 0.977113 0.449694 0.000000
H464  H     H_    0.735117 0.021791 0.495511 0.000000
H465  H     H_    0.820697 0.056245 0.553493 0.000000
H466  H     H_    0.813052 0.985710 0.546563 0.000000
H467  H     H_    0.977314 0.011489 0.415760 0.000000
H468  H     H_    0.070793 0.081407 0.411154 0.000000
H469  H     H_    0.092811 0.157764 0.462086 0.000000
H470  H     H_    0.026530 0.157879 0.523971 0.000000
C424  C     C_3   0.872039 0.888956 0.610578 0.000000
N142  N     N_3   0.909592 0.922852 0.566924 0.000000
C425  C     C_3   0.962836 0.906949 0.582754 0.000000
C426  C     C_R   0.988757 0.907195 0.533056 0.000000
N143  N     N_R   0.956704 0.914342 0.480980 0.000000
C427  C     C_R   0.991418 0.910768 0.447129 0.000000
C428  C     C_R   0.980895 0.916168 0.390014 0.000000
C429  C     C_R   0.025677 0.926533 0.360365 0.000000
C430  C     C_R   0.078467 0.926124 0.389340 0.000000
C431  C     C_R   0.086545 0.911322 0.447837 0.000000
C432  C     C_R   0.042109 0.904596 0.476437 0.000000
N144  N     N_R   0.043233 0.899320 0.532731 0.000000
H471  H     H_    0.830512 0.899520 0.598744 0.000000
H472  H     H_    0.864972 0.842312 0.613760 0.000000
H473  H     H_    0.889646 0.899734 0.652059 0.000000
H474  H     H_    0.919358 0.964714 0.572465 0.000000
H475  H     H_    0.990674 0.941463 0.601295 0.000000
H476  H     H_    0.955325 0.862282 0.609506 0.000000
H477  H     H_    0.939138 0.910842 0.369272 0.000000
H478  H     H_    0.019085 0.933538 0.314858 0.000000
H479  H     H_    0.113802 0.937152 0.365454 0.000000
H480  H     H_    0.127897 0.911268 0.469163 0.000000
C433  C     C_3   0.758533 0.940150 0.992075 0.000000
N145  N     N_3   0.800065 0.959449 0.037166 0.000000
C434  C     C_3   0.813902 0.021622 0.021029 0.000000
C435  C     C_R   0.856338 0.052251 0.060381 0.000000
N146  N     N_R   0.855438 0.032279 0.119709 0.000000
C436  C     C_R   0.852319 0.079910 0.133860 0.000000
C437  C     C_R   0.834464 0.082505 0.182941 0.000000
C438  C     C_R   0.826485 0.134396 0.185790 0.000000
C439  C     C_R   0.834150 0.181896 0.139232 0.000000
C440  C     C_R   0.848728 0.177431 0.089002 0.000000
C441  C     C_R   0.858451 0.126467 0.087678 0.000000
N147  N     N_R   0.865453 0.111727 0.041082 0.000000
H481  H     H_    0.748487 0.892682 0.000991 0.000000
H482  H     H_    0.719040 0.953194 0.990539 0.000000
H483  H     H_    0.775044 0.959469 0.949788 0.000000
H484  H     H_    0.834956 0.943700 0.040296 0.000000
H485  H     H_    0.828527 0.037238 0.978491 0.000000
H486  H     H_    0.774482 0.034788 0.019498 0.000000
H487  H     H_    0.822958 0.044766 0.216975 0.000000
H488  H     H_    0.812251 0.137352 0.223903 0.000000
H489  H     H_    0.826381 0.221760 0.141442 0.000000
H490  H     H_    0.851458 0.212388 0.051499 0.000000
C442  C     C_3   0.901156 0.353865 0.990423 0.000000
N148  N     N_3   0.858221 0.303185 0.979073 0.000000
C443  C     C_3   0.845228 0.311467 0.917635 0.000000
C444  C     C_R   0.801790 0.259995 0.903618 0.000000
N149  N     N_R   0.810641 0.205144 0.922690 0.000000
C445  C     C_R   0.765289 0.173702 0.896439 0.000000
C446  C     C_R   0.751531 0.115606 0.899845 0.000000
C447  C     C_R   0.710849 0.094005 0.859646 0.000000
C448  C     C_R   0.693184 0.132406 0.811787 0.000000
C449  C     C_R   0.709516 0.190931 0.809407 0.000000
C450  C     C_R   0.736128 0.208458 0.857854 0.000000
N150  N     N_R   0.753870 0.263014 0.864411 0.000000
H491  H     H_    0.911733 0.347943 0.037336 0.000000
H492  H     H_    0.940145 0.359357 0.970756 0.000000
H493  H     H_    0.884843 0.393040 0.972962 0.000000
H494  H     H_    0.821599 0.300911 0.996164 0.000000
H495  H     H_    0.830391 0.350699 0.900499 0.000000
H496  H     H_    0.884122 0.317870 0.898012 0.000000
H497  H     H_    0.773418 0.088189 0.930802 0.000000
H498  H     H_    0.699665 0.048323 0.861139 0.000000
H499  H     H_    0.668843 0.116985 0.775489 0.000000
H500  H     H_    0.703494 0.221704 0.769800 0.000000
C451  C     C_3   0.053241 0.157699 0.071003 0.000000
N151  N     N_3   0.994745 0.157788 0.071359 0.000000
C452  C     C_3   0.993524 0.215642 0.066931 0.000000
C453  C     C_R   0.996616 0.246280 0.007155 0.000000
N152  N     N_R   0.045670 0.284936 0.987324 0.000000
C454  C     C_R   0.029119 0.301050 0.931332 0.000000
C455  C     C_R   0.059524 0.342696 0.890970 0.000000
C456  C     C_R   0.034564 0.351676 0.835288 0.000000
C457  C     C_R   0.983770 0.314409 0.821028 0.000000
C458  C     C_R   0.952894 0.273145 0.862464 0.000000
C459  C     C_R   0.975804 0.269555 0.917919 0.000000
N153  N     N_R   0.953578 0.233429 0.964995 0.000000
H501  H     H_    0.052553 0.121513 0.053984 0.000000
H502  H     H_    0.077090 0.196512 0.042199 0.000000
H503  H     H_    0.076014 0.153834 0.114116 0.000000
H504  H     H_    0.978195 0.131420 0.108145 0.000000
H505  H     H_    0.955496 0.217556 0.082863 0.000000
H506  H     H_    0.030396 0.234816 0.091720 0.000000
H507  H     H_    0.101588 0.366061 0.902444 0.000000
H508  H     H_    0.055680 0.385794 0.802001 0.000000
H509  H     H_    0.968358 0.318058 0.777006 0.000000
H510  H     H_    0.912158 0.245625 0.851502 0.000000
C460  C     C_3   0.829436 0.197221 0.719131 0.000000
N154  N     N_3   0.862373 0.159844 0.757717 0.000000
C461  C     C_3   0.833029 0.135007 0.808201 0.000000
C462  C     C_R   0.868161 0.105003 0.854551 0.000000
N155  N     N_R   0.882081 0.054626 0.854837 0.000000
C463  C     C_R   0.911032 0.044776 0.906649 0.000000
C464  C     C_R   0.897308 0.994910 0.947027 0.000000
C465  C     C_R   0.927391 0.992661 0.000774 0.000000
C466  C     C_R   0.962288 0.042097 0.013868 0.000000
C467  C     C_R   0.956100 0.093364 0.977945 0.000000
C468  C     C_R   0.923338 0.090747 0.928655 0.000000
N156  N     N_R   0.889870 0.125050 0.903229 0.000000
H511  H     H_    0.841092 0.207442 0.675021 0.000000
H512  H     H_    0.783683 0.174891 0.719071 0.000000
H513  H     H_    0.837612 0.237784 0.733234 0.000000
H514  H     H_    0.901033 0.185596 0.770581 0.000000
H515  H     H_    0.826169 0.170994 0.821605 0.000000
H516  H     H_    0.792534 0.104229 0.799515 0.000000
H517  H     H_    0.867553 0.958680 0.934916 0.000000
H518  H     H_    0.925785 0.952846 0.032092 0.000000
H519  H     H_    0.987885 0.039612 0.054146 0.000000
H520  H     H_    0.975720 0.134966 0.984792 0.000000
C469  C     C_3   0.199341 0.527301 0.816681 0.000000
N157  N     N_3   0.221342 0.514340 0.876498 0.000000
C470  C     C_3   0.188087 0.458098 0.905464 0.000000
C471  C     C_R   0.198368 0.448005 0.969533 0.000000
N158  N     N_R   0.221802 0.494972 0.994329 0.000000
C472  C     C_R   0.189386 0.480528 0.037770 0.000000
C473  C     C_R   0.180371 0.518866 0.063388 0.000000
C474  C     C_R   0.133900 0.503098 0.093793 0.000000
C475  C     C_R   0.093704 0.451494 0.092534 0.000000
C476  C     C_R   0.101480 0.415025 0.062876 0.000000
C477  C     C_R   0.152307 0.427196 0.041000 0.000000
N159  N     N_R   0.161283 0.402011 0.002711 0.000000
H521  H     H_    0.171081 0.556240 0.808970 0.000000
H522  H     H_    0.235164 0.550821 0.790850 0.000000
H523  H     H_    0.175456 0.487120 0.803647 0.000000
H524  H     H_    0.216116 0.546364 0.893021 0.000000
H525  H     H_    0.142905 0.457729 0.893376 0.000000
H526  H     H_    0.196737 0.423031 0.891521 0.000000
H527  H     H_    0.203645 0.562657 0.052188 0.000000
H528  H     H_    0.125584 0.533844 0.112811 0.000000
H529  H     H_    0.054135 0.442139 0.110535 0.000000
H530  H     H_    0.065956 0.381461 0.051664 0.000000
C478  C     C_3   0.059647 0.522109 0.881501 0.000000
N160  N     N_3   0.108571 0.570956 0.868014 0.000000
C479  C     C_3   0.135349 0.587783 0.920485 0.000000
C480  C     C_R   0.185086 0.638720 0.908978 0.000000
N161  N     N_R   0.239176 0.639024 0.936015 0.000000
C481  C     C_R   0.266569 0.695198 0.921011 0.000000
C482  C     C_R   0.317732 0.722205 0.945157 0.000000
C483  C     C_R   0.337615 0.781437 0.924642 0.000000
C484  C     C_R   0.304939 0.812370 0.882651 0.000000
C485  C     C_R   0.251212 0.784674 0.862573 0.000000
C486  C     C_R   0.232942 0.725838 0.882879 0.000000
N162  N     N_R   0.179943 0.692264 0.876328 0.000000
H531  H     H_    0.044367 0.503042 0.844000 0.000000
H532  H     H_    0.071188 0.488546 0.918673 0.000000
H533  H     H_    0.025323 0.536597 0.891829 0.000000
H534  H     H_    0.094536 0.605260 0.839857 0.000000
H535  H     H_    0.104764 0.597916 0.941089 0.000000
H536  H     H_    0.149561 0.551566 0.950011 0.000000
H537  H     H_    0.341885 0.698018 0.978808 0.000000
H538  H     H_    0.378403 0.803853 0.942042 0.000000
H539  H     H_    0.320140 0.858800 0.868069 0.000000
H540  H     H_    0.223013 0.809120 0.835210 0.000000
C487  C     C_3   0.007514 0.101433 0.214966 0.000000
N163  N     N_3   0.019501 0.045930 0.222457 0.000000
C488  C     C_3   0.008978 0.027344 0.169488 0.000000
C489  C     C_R   0.995634 0.963495 0.184731 0.000000
N164  N     N_R   0.033782 0.927321 0.203996 0.000000
C490  C     C_R   0.998429 0.878639 0.231599 0.000000
C491  C     C_R   0.005264 0.823641 0.248854 0.000000
C492  C     C_R   0.963029 0.781832 0.278153 0.000000
C493  C     C_R   0.919527 0.796537 0.293081 0.000000
C494  C     C_R   0.907803 0.848485 0.267003 0.000000
C495  C     C_R   0.946654 0.887028 0.232884 0.000000
N165  N     N_R   0.940984 0.937211 0.198485 0.000000
H541  H     H_    0.011383 0.110672 0.257116 0.000000
H542  H     H_    0.038857 0.136141 0.190297 0.000000
H543  H     H_    0.963959 0.101225 0.195028 0.000000
H544  H     H_    0.993289 0.014899 0.251096 0.000000
H545  H     H_    0.969999 0.038245 0.145315 0.000000
H546  H     H_    0.043613 0.048422 0.142841 0.000000
H547  H     H_    0.040029 0.812396 0.238014 0.000000
H548  H     H_    0.965725 0.738439 0.295891 0.000000
H549  H     H_    0.895119 0.766373 0.325263 0.000000
H550  H     H_    0.869593 0.857517 0.272998 0.000000
C496  C     C_3   0.119762 0.061517 0.327792 0.000000
N166  N     N_3   0.128705 0.028432 0.291284 0.000000
C497  C     C_3   0.149522 0.067289 0.239277 0.000000
C498  C     C_R   0.194202 0.047386 0.227021 0.000000
N167  N     N_R   0.247741 0.078239 0.240176 0.000000
C499  C     C_R   0.277337 0.038064 0.252977 0.000000
C500  C     C_R   0.332512 0.042673 0.276803 0.000000
C501  C     C_R   0.355041 0.995813 0.287131 0.000000
C502  C     C_R   0.321925 0.945206 0.273756 0.000000
C503  C     C_R   0.266015 0.941026 0.251586 0.000000
C504  C     C_R   0.243574 0.987238 0.242684 0.000000
N168  N     N_R   0.189204 0.990680 0.225579 0.000000
H551  H     H_    0.087795 0.085322 0.306677 0.000000
H552  H     H_    0.103598 0.032824 0.367428 0.000000
H553  H     H_    0.160403 0.090450 0.340484 0.000000
H554  H     H_    0.091236 0.000415 0.279894 0.000000
H555  H     H_    0.117158 0.072086 0.203333 0.000000
H556  H     H_    0.170714 0.109552 0.247577 0.000000
H557  H     H_    0.358442 0.082287 0.286034 0.000000
H558  H     H_    0.398687 0.998979 0.304945 0.000000
H559  H     H_    0.339645 0.908576 0.281080 0.000000
H560  H     H_    0.241634 0.902570 0.241540 0.000000
C505  C     C_3   0.481489 0.250686 0.380735 0.000000
N169  N     N_3   0.529033 0.249346 0.354583 0.000000
C506  C     C_3   0.565403 0.307819 0.342642 0.000000
C507  C     C_R   0.609526 0.311264 0.307983 0.000000
N170  N     N_R   0.667268 0.313780 0.326960 0.000000
C508  C     C_R   0.687184 0.321270 0.276882 0.000000
C509  C     C_R   0.741927 0.326808 0.268885 0.000000
C510  C     C_R   0.755459 0.337906 0.213787 0.000000
C511  C     C_R   0.714449 0.345622 0.167987 0.000000
C512  C     C_R   0.659242 0.340426 0.177033 0.000000
C513  C     C_R   0.645735 0.325394 0.231879 0.000000
N171  N     N_R   0.595121 0.319044 0.249592 0.000000
H561  H     H_    0.475528 0.216526 0.421021 0.000000
H562  H     H_    0.489266 0.293349 0.389538 0.000000
H563  H     H_    0.442739 0.243898 0.350928 0.000000
H564  H     H_    0.513078 0.238586 0.315572 0.000000
H565  H     H_    0.539904 0.336798 0.315412 0.000000
H566  H     H_    0.584218 0.322569 0.381684 0.000000
H567  H     H_    0.772774 0.320995 0.304834 0.000000
H568  H     H_    0.798408 0.342040 0.206300 0.000000
H569  H     H_    0.726128 0.356465 0.125068 0.000000
H570  H     H_    0.628449 0.351592 0.142241 0.000000
C514  C     C_3   0.619559 0.131902 0.472285 0.000000
N172  N     N_3   0.636014 0.182293 0.496215 0.000000
C515  C     C_3   0.610092 0.226494 0.458011 0.000000
C516  C     C_R   0.630466 0.280874 0.478200 0.000000
N173  N     N_R   0.618284 0.275642 0.532403 0.000000
C517  C     C_R   0.669963 0.287359 0.560186 0.000000
C518  C     C_R   0.684945 0.260142 0.615262 0.000000
C519  C     C_R   0.741232 0.273443 0.635699 0.000000
C520  C     C_R   0.781136 0.310037 0.599782 0.000000
C521  C     C_R   0.765604 0.326267 0.541613 0.000000
C522  C     C_R   0.709507 0.312252 0.522757 0.000000
N174  N     N_R   0.685829 0.310667 0.469261 0.000000
H571  H     H_    0.632781 0.095281 0.504084 0.000000
H572  H     H_    0.572939 0.119578 0.461579 0.000000
H573  H     H_    0.640665 0.141516 0.433052 0.000000
H574  H     H_    0.680000 0.197628 0.496661 0.000000
H575  H     H_    0.622469 0.234111 0.414811 0.000000
H576  H     H_    0.563843 0.210961 0.459303 0.000000
H577  H     H_    0.654140 0.228581 0.641799 0.000000
H578  H     H_    0.753095 0.258443 0.680613 0.000000
H579  H     H_    0.824631 0.323631 0.617272 0.000000
H580  H     H_    0.795502 0.352051 0.512212 0.000000
C523  C     C_3   0.927375 0.359364 0.548778 0.000000
N175  N     N_3   0.897841 0.301449 0.542170 0.000000
C524  C     C_3   0.872550 0.306856 0.483844 0.000000
C525  C     C_R   0.827198 0.254058 0.476540 0.000000
N176  N     N_R   0.843949 0.204050 0.483087 0.000000
C526  C     C_R   0.811131 0.183236 0.439284 0.000000
C527  C     C_R   0.826423 0.154696 0.406241 0.000000
C528  C     C_R   0.793756 0.148646 0.355045 0.000000
C529  C     C_R   0.745497 0.168796 0.338405 0.000000
C530  C     C_R   0.733983 0.202263 0.368820 0.000000
C531  C     C_R   0.770303 0.212492 0.415989 0.000000
N177  N     N_R   0.778927 0.258310 0.437662 0.000000
H581  H     H_    0.954186 0.356593 0.590118 0.000000
H582  H     H_    0.954954 0.382313 0.513747 0.000000
H583  H     H_    0.896464 0.384053 0.548098 0.000000
H584  H     H_    0.865737 0.283444 0.569154 0.000000
H585  H     H_    0.857023 0.345828 0.468911 0.000000
H586  H     H_    0.906290 0.312140 0.457105 0.000000
H587  H     H_    0.865346 0.141683 0.416455 0.000000
H588  H     H_    0.805751 0.127637 0.327723 0.000000
H589  H     H_    0.719502 0.162206 0.299281 0.000000
H590  H     H_    0.699277 0.222077 0.354044 0.000000
C532  C     C_3   0.284090 0.347081 0.163007 0.000000
N178  N     N_3   0.301894 0.293783 0.172558 0.000000
C533  C     C_3   0.350195 0.297480 0.214422 0.000000
C534  C     C_R   0.382757 0.255844 0.216017 0.000000
N179  N     N_R   0.352337 0.201154 0.214050 0.000000
C535  C     C_R   0.391498 0.179620 0.200919 0.000000
C536  C     C_R   0.383499 0.131457 0.180512 0.000000
C537  C     C_R   0.430640 0.117811 0.170486 0.000000
C538  C     C_R   0.484449 0.153688 0.177996 0.000000
C539  C     C_R   0.491220 0.205489 0.191972 0.000000
C540  C     C_R   0.443821 0.217491 0.202396 0.000000
N180  N     N_R   0.440915 0.267189 0.211509 0.000000
H591  H     H_    0.242264 0.343678 0.137732 0.000000
H592  H     H_    0.280597 0.355167 0.204307 0.000000
H593  H     H_    0.314781 0.384854 0.139626 0.000000
H594  H     H_    0.316891 0.293764 0.135586 0.000000
H595  H     H_    0.374687 0.340990 0.199925 0.000000
H596  H     H_    0.334940 0.286215 0.256836 0.000000
H597  H     H_    0.341988 0.104677 0.172010 0.000000
H598  H     H_    0.425422 0.078937 0.156465 0.000000
H599  H     H_    0.520899 0.142118 0.170683 0.000000
H600  H     H_    0.532478 0.235455 0.194393 0.000000

loop_
_geom_bond_atom_site_label_1
_geom_bond_atom_site_label_2
_geom_bond_distance
_geom_bond_site_symmetry_2
_ccdc_geom_bond_type
Zn1   N15   2.228 .      S
Zn1   N26   2.147 .      S
Zn1   N129  2.117 .      S
Zn1   N150  2.116 .      S
Zn2   N2    2.097 .      S
Zn2   N18   2.079 .      S
Zn2   N141  2.057 .      S
Zn2   N176  2.154 .      S
Zn3   N20   2.083 .      S
Zn3   N29   2.081 .      S
Zn3   N57   2.027 .      S
Zn3   N81   2.149 .      S
Zn4   N6    2.173 .      S
Zn4   N8    2.065 .      S
Zn4   N117  2.099 .      S
Zn4   N135  2.186 .      S
Zn5   N12   2.130 .      S
Zn5   N62   2.206 .      S
Zn5   N98   2.144 .      S
Zn5   N144  2.236 .      S
Zn6   N14   2.219 .      S
Zn6   N65   2.212 .      S
Zn6   N113  2.145 .      S
Zn6   N173  2.063 .      S
Zn7   N17   2.134 .      S
Zn7   N21   2.178 1_545  S
Zn7   N120  2.161 1_545  S
Zn7   N155  2.140 .      S
Zn8   N11   2.095 .      S
Zn8   N36   2.092 .      S
Zn8   N126  2.115 .      S
Zn8   N162  2.031 .      S
Zn9   N9    2.006 1_554  S
Zn9   N23   2.182 .      S
Zn9   N152  2.098 1_554  S
Zn9   N159  2.179 .      S
Zn10  N24   2.232 .      S
Zn10  N69   2.104 .      S
Zn10  N167  2.072 .      S
Zn10  N179  2.107 .      S
Zn11  N27   2.128 .      S
Zn11  N30   2.101 .      S
Zn11  N32   2.099 .      S
Zn11  N35   2.171 .      S
Zn12  N38   2.206 .      S
Zn12  N41   2.133 .      S
Zn12  N45   2.134 .      S
Zn12  N53   2.126 .      S
Zn13  N48   2.090 .      S
Zn13  N50   2.050 .      S
Zn13  N54   2.149 .      S
Zn13  N56   2.048 .      S
Zn14  N59   2.110 .      S
Zn14  N63   2.097 .      S
Zn14  N66   2.157 .      S
Zn14  N68   2.090 .      S
Zn15  N33   2.118 .      S
Zn15  N42   2.050 .      S
Zn15  N71   2.017 .      S
Zn15  N75   2.058 .      S
Zn16  N77   1.986 .      S
Zn16  N80   2.191 .      S
Zn16  N84   2.073 .      S
Zn16  N96   2.187 .      S
Zn17  N87   2.075 .      S
Zn17  N90   2.008 .      S
Zn17  N93   2.090 .      S
Zn17  N95   2.135 .      S
Zn18  N39   2.182 .      S
Zn18  N86   2.108 .      S
Zn18  N99   2.142 .      S
Zn18  N101  2.123 .      S
Zn19  N51   2.044 .      S
Zn19  N105  2.088 .      S
Zn19  N107  2.055 .      S
Zn19  N110  2.199 .      S
Zn20  N72   2.005 .      S
Zn20  N89   2.013 .      S
Zn20  N104  2.068 .      S
Zn20  N114  2.153 .      S
Zn21  N116  2.049 1_565  S
Zn21  N119  2.070 .      S
Zn21  N122  2.090 1_556  S
Zn21  N125  2.071 .      S
Zn22  N78   2.169 .      S
Zn22  N128  2.070 .      S
Zn22  N132  2.087 1_556  S
Zn22  N134  2.125 .      S
Zn23  N74   2.136 .      S
Zn23  N137  2.165 .      S
Zn23  N140  2.117 1_565  S
Zn23  N143  2.119 .      S
Zn24  N147  2.139 1_556  S
Zn24  N149  2.073 .      S
Zn24  N153  2.073 .      S
Zn24  N156  2.079 .      S
Zn25  N83   2.095 .      S
Zn25  N111  2.155 1_556  S
Zn25  N158  2.189 .      S
Zn25  N161  2.051 .      S
Zn26  N102  2.160 .      S
Zn26  N123  2.145 .      S
Zn26  N164  2.233 .      S
Zn26  N168  2.181 .      S
Zn27  N44   2.112 .      S
Zn27  N170  2.223 .      S
Zn27  N174  2.049 .      S
Zn27  N177  2.114 .      S
Zn28  N47   2.138 .      S
Zn28  N138  2.134 .      S
Zn28  N146  2.150 1_565  S
Zn28  N165  2.104 .      S
Zn29  N108  2.108 .      S
Zn29  N131  2.151 .      S
Zn29  N171  2.180 .      S
Zn29  N180  2.110 .      S
Zn30  N3    2.151 .      S
Zn30  N5    2.144 .      S
Zn30  N60   2.057 .      S
Zn30  N92   2.126 .      S
C1    N1    1.458 .      S
C1    H1    1.100 .      S
C1    H2    1.099 .      S
C1    H3    1.106 .      S
N1    C2    1.445 1_655  S
N1    H4    1.032 .      S
C2    N1    1.445 1_455  S
C2    C3    1.481 .      S
C2    H5    1.094 .      S
C2    H6    1.099 .      S
C5    H7    1.075 .      S
C6    H8    1.080 1_455  S
C7    H9    1.081 .      S
C8    H10   1.061 .      S
H8    C6    1.080 1_655  S
C10   N4    1.453 .      S
C10   H11   1.105 .      S
C10   H12   1.109 .      S
C10   H13   1.108 .      S
N4    C11   1.454 .      S
N4    H14   1.037 .      S
C11   C12   1.493 .      S
C11   H15   1.096 .      S
C11   H16   1.098 .      S
C14   H17   1.047 .      S
C15   H18   1.081 .      S
C16   H19   1.077 .      S
C17   H20   1.062 .      S
C19   N7    1.449 .      S
C19   H21   1.100 .      S
C19   H22   1.109 .      S
C19   H23   1.104 .      S
N7    C20   1.443 .      S
N7    H24   1.034 .      S
C20   C21   1.499 .      S
C20   H25   1.107 .      S
C20   H26   1.106 .      S
C23   H27   1.043 .      S
C24   H28   1.077 .      S
C25   H29   1.063 .      S
C26   H30   1.065 .      S
N9    Zn9   2.006 1_556  S
C28   N10   1.453 .      S
C28   H31   1.109 .      S
C28   H32   1.102 .      S
C28   H33   1.107 .      S
N10   C29   1.455 .      S
N10   H34   1.039 .      S
C29   C30   1.491 .      S
C29   H35   1.107 .      S
C29   H36   1.108 .      S
C32   H37   1.037 .      S
C33   H38   1.080 1_455  S
C34   H39   1.067 1_455  S
C35   H40   1.067 .      S
H38   C33   1.080 1_655  S
H39   C34   1.067 1_655  S
C37   N13   1.452 .      S
C37   H41   1.108 .      S
C37   H42   1.101 .      S
C37   H43   1.103 .      S
N13   C38   1.445 .      S
N13   H44   1.031 .      S
C38   C39   1.479 .      S
C38   H45   1.083 .      S
C38   H46   1.093 .      S
C41   H47   1.066 .      S
C42   H48   1.081 .      S
C43   H49   1.081 .      S
C44   H50   1.080 .      S
C46   N16   1.452 .      S
C46   H51   1.108 .      S
C46   H52   1.095 .      S
C46   H53   1.106 .      S
N16   C47   1.452 1_455  S
N16   H54   1.040 1_455  S
C47   N16   1.452 1_655  S
C47   C48   1.466 .      S
C47   H55   1.077 .      S
C47   H56   1.091 .      S
C50   H57   1.080 .      S
C51   H58   1.081 .      S
C52   H59   1.081 .      S
C53   H60   1.077 .      S
H54   N16   1.040 1_655  S
C55   N19   1.448 .      S
C55   H61   1.103 1_556  S
C55   H62   1.107 .      S
C55   H63   1.084 .      S
N19   C56   1.444 .      S
N19   H64   1.039 .      S
C56   C57   1.459 .      S
C56   H65   1.079 .      S
C56   H66   1.101 .      S
C59   H67   1.076 .      S
C60   H68   1.081 .      S
C61   H69   1.076 .      S
C62   H70   1.071 .      S
N21   Zn7   2.178 1_565  S
H61   C55   1.103 1_554  S
C64   N22   1.438 .      S
C64   H71   1.102 .      S
C64   H72   1.108 .      S
C64   H73   1.108 .      S
N22   C65   1.439 .      S
N22   H74   1.031 .      S
C65   C66   1.471 .      S
C65   H75   1.088 .      S
C65   H76   1.100 .      S
C68   H77   1.053 .      S
C69   H78   1.081 .      S
C70   H79   1.081 .      S
C71   H80   1.058 .      S
C73   N25   1.419 .      S
C73   H81   1.104 .      S
C73   H82   1.094 .      S
C73   H83   1.096 .      S
N25   C74   1.439 .      S
N25   H84   1.038 .      S
C74   C75   1.417 .      S
C74   H85   1.097 .      S
C74   H86   1.104 .      S
C77   H87   1.080 .      S
C78   H88   1.075 .      S
C79   H89   1.081 .      S
C80   H90   1.078 .      S
C82   N28   1.450 .      S
C82   H91   1.109 .      S
C82   H92   1.107 .      S
C82   H93   1.102 .      S
N28   C83   1.451 .      S
N28   H94   1.042 .      S
C83   C84   1.493 .      S
C83   H95   1.107 .      S
C83   H96   1.106 .      S
C86   H97   1.077 .      S
C87   H98   1.076 1_556  S
C88   H99   1.072 .      S
C89   H100  1.058 .      S
H98   C87   1.076 1_554  S
C91   N31   1.442 .      S
C91   H101  1.080 .      S
C91   H102  1.105 .      S
C91   H103  1.096 .      S
N31   C92   1.429 .      S
N31   H104  1.032 .      S
C92   C93   1.449 .      S
C92   H105  1.071 .      S
C92   H106  1.075 .      S
C95   H107  1.055 .      S
C96   H108  1.079 .      S
C97   H109  1.071 .      S
C98   H110  1.062 .      S
C100  N34   1.443 1_655  S
C100  H111  1.109 .      S
C100  H112  1.079 .      S
C100  H113  1.087 .      S
N34   C100  1.443 1_455  S
N34   C101  1.459 .      S
N34   H114  1.038 1_455  S
C101  C102  1.490 1_455  S
C101  H115  1.092 .      S
C101  H116  1.105 .      S
C102  C101  1.490 1_655  S
C104  H117  1.066 .      S
C105  H118  1.081 1_556  S
C106  H119  1.081 1_656  S
C107  H120  1.080 .      S
H114  N34   1.038 1_655  S
H118  C105  1.081 1_554  S
H119  C106  1.081 1_454  S
C109  N37   1.455 .      S
C109  H121  1.109 .      S
C109  H122  1.105 .      S
C109  H123  1.104 .      S
N37   C110  1.454 .      S
N37   H124  1.041 .      S
C110  C111  1.500 .      S
C110  H125  1.097 .      S
C110  H126  1.096 .      S
C113  H127  1.064 .      S
C114  H128  1.079 .      S
C115  H129  1.073 .      S
C116  H130  1.077 .      S
C118  N40   1.447 .      S
C118  H131  1.105 .      S
C118  H132  1.106 .      S
C118  H133  1.104 .      S
N40   C119  1.431 .      S
N40   H134  1.040 .      S
C119  C120  1.475 .      S
C119  H135  1.107 .      S
C119  H136  1.091 .      S
C122  H137  1.058 .      S
C123  H138  1.067 .      S
C124  H139  1.071 .      S
C125  H140  1.061 .      S
C127  N43   1.411 .      S
C127  H141  1.100 .      S
C127  H142  1.088 .      S
C127  H143  1.094 .      S
N43   C128  1.432 .      S
N43   H144  1.040 .      S
C128  C129  1.431 .      S
C128  H145  1.105 .      S
C128  H146  1.106 .      S
C131  H147  1.076 .      S
C132  H148  1.078 .      S
C133  H149  1.081 .      S
C134  H150  1.066 .      S
C136  N46   1.446 .      S
C136  H151  1.104 .      S
C136  H152  1.099 .      S
C136  H153  1.097 .      S
N46   C137  1.434 .      S
N46   H154  1.032 .      S
C137  C138  1.450 .      S
C137  H155  1.089 .      S
C137  H156  1.097 .      S
C140  H157  1.080 .      S
C141  H158  1.081 .      S
C142  H159  1.081 .      S
C143  H160  1.077 .      S
C145  N49   1.455 .      S
C145  H161  1.107 .      S
C145  H162  1.105 .      S
C145  H163  1.101 .      S
N49   C146  1.436 .      S
N49   H164  1.030 .      S
C146  C147  1.487 .      S
C146  H165  1.109 .      S
C146  H166  1.092 .      S
C149  H167  1.057 .      S
C150  H168  1.075 .      S
C151  H169  1.066 .      S
C152  H170  1.071 .      S
C154  N52   1.459 .      S
C154  H171  1.107 .      S
C154  H172  1.100 .      S
C154  H173  1.104 .      S
N52   C155  1.456 .      S
N52   H174  1.031 .      S
C155  C156  1.476 .      S
C155  H175  1.102 .      S
C155  H176  1.096 .      S
C158  H177  1.068 .      S
C159  H178  1.078 .      S
C160  H179  1.076 .      S
C161  H180  1.071 .      S
C163  N55   1.457 .      S
C163  H181  1.107 .      S
C163  H182  1.105 1_556  S
C163  H183  1.108 .      S
N55   C164  1.447 .      S
N55   H184  1.040 .      S
C164  C165  1.476 .      S
C164  H185  1.103 .      S
C164  H186  1.094 1_556  S
C167  H187  1.070 .      S
C168  H188  1.081 .      S
C169  H189  1.076 .      S
C170  H190  1.074 .      S
H182  C163  1.105 1_554  S
H186  C164  1.094 1_554  S
C172  N58   1.444 .      S
C172  H191  1.108 .      S
C172  H192  1.104 .      S
C172  H193  1.104 .      S
N58   C173  1.443 .      S
N58   H194  1.041 .      S
C173  C174  1.465 .      S
C173  H195  1.106 .      S
C173  H196  1.101 .      S
C176  H197  1.069 .      S
C177  H198  1.070 .      S
C178  H199  1.080 .      S
C179  H200  1.060 .      S
C181  N61   1.450 .      S
C181  H201  1.099 .      S
C181  H202  1.102 1_565  S
C181  H203  1.107 .      S
N61   C182  1.453 1_565  S
N61   H204  1.043 1_565  S
C182  N61   1.453 1_545  S
C182  C183  1.474 .      S
C182  H205  1.089 .      S
C182  H206  1.089 .      S
C185  H207  1.056 .      S
C186  H208  1.081 .      S
C187  H209  1.081 .      S
C188  H210  1.079 .      S
H202  C181  1.102 1_545  S
H204  N61   1.043 1_545  S
C190  N64   1.448 .      S
C190  H211  1.085 .      S
C190  H212  1.092 .      S
C190  H213  1.088 .      S
N64   C191  1.453 .      S
N64   H214  1.040 .      S
C191  C192  1.458 .      S
C191  H215  1.106 .      S
C191  H216  1.102 .      S
C194  H217  1.079 .      S
C195  H218  1.081 .      S
C196  H219  1.081 .      S
C197  H220  1.080 .      S
C199  N67   1.455 .      S
C199  H221  1.109 .      S
C199  H222  1.107 .      S
C199  H223  1.109 .      S
N67   C200  1.446 .      S
N67   H224  1.041 .      S
C200  C201  1.478 .      S
C200  H225  1.092 .      S
C200  H226  1.100 .      S
C203  H227  1.074 .      S
C204  H228  1.080 .      S
C205  H229  1.081 .      S
C206  H230  1.070 .      S
C208  N70   1.447 .      S
C208  H231  1.101 .      S
C208  H232  1.103 .      S
C208  H233  1.104 .      S
N70   C209  1.443 .      S
N70   H234  1.040 .      S
C209  C210  1.471 .      S
C209  H235  1.098 .      S
C209  H236  1.093 .      S
C212  H237  1.070 .      S
C213  H238  1.081 .      S
C214  H239  1.060 .      S
C215  H240  1.064 .      S
C217  N73   1.421 .      S
C217  H241  1.077 .      S
C217  H242  1.105 .      S
C217  H243  1.094 .      S
N73   C218  1.426 .      S
N73   H244  1.042 .      S
C218  C219  1.420 .      S
C218  H245  1.086 .      S
C218  H246  1.098 .      S
C221  H247  1.055 .      S
C222  H248  1.081 .      S
C223  H249  1.081 .      S
C224  H250  1.076 .      S
C226  N76   1.448 .      S
C226  H251  1.097 .      S
C226  H252  1.088 .      S
C226  H253  1.096 .      S
N76   C227  1.455 .      S
N76   H254  1.040 .      S
C227  C228  1.472 .      S
C227  H255  1.103 .      S
C227  H256  1.084 .      S
C230  H257  1.073 .      S
C231  H258  1.075 .      S
C232  H259  1.063 .      S
C233  H260  1.055 .      S
C235  N79   1.449 .      S
C235  H261  1.106 .      S
C235  H262  1.087 .      S
C235  H263  1.095 .      S
N79   C236  1.451 .      S
N79   H264  1.024 .      S
C236  C237  1.485 .      S
C236  H265  1.103 .      S
C236  H266  1.099 .      S
C239  H267  1.075 .      S
C240  H268  1.081 .      S
C241  H269  1.081 .      S
C242  H270  1.077 .      S
C244  N82   1.453 .      S
C244  H271  1.108 .      S
C244  H272  1.108 .      S
C244  H273  1.108 .      S
N82   C245  1.455 .      S
N82   H274  1.043 .      S
C245  C246  1.470 .      S
C245  H275  1.090 .      S
C245  H276  1.096 .      S
C248  H277  1.068 .      S
C249  H278  1.053 .      S
C250  H279  1.058 .      S
C251  H280  1.066 .      S
C253  N85   1.451 .      S
C253  H281  1.108 .      S
C253  H282  1.107 .      S
C253  H283  1.107 .      S
N85   C254  1.446 .      S
N85   H284  1.039 .      S
C254  C255  1.485 .      S
C254  H285  1.106 .      S
C254  H286  1.103 .      S
C257  H287  1.067 .      S
C258  H288  1.080 .      S
C259  H289  1.081 .      S
C260  H290  1.077 .      S
C262  N88   1.453 .      S
C262  H291  1.109 .      S
C262  H292  1.107 .      S
C262  H293  1.108 .      S
N88   C263  1.453 .      S
N88   H294  1.040 .      S
C263  C264  1.488 .      S
C263  H295  1.099 .      S
C263  H296  1.101 .      S
C266  H297  1.066 .      S
C267  H298  1.070 .      S
C268  H299  1.072 .      S
C269  H300  1.078 .      S
C271  N91   1.429 .      S
C271  H301  1.103 .      S
C271  H302  1.100 .      S
C271  H303  1.099 .      S
N91   C272  1.431 .      S
N91   H304  1.029 .      S
C272  C273  1.448 .      S
C272  H305  1.071 .      S
C272  H306  1.073 .      S
C275  H307  1.074 .      S
C276  H308  1.079 .      S
C277  H309  1.071 .      S
C278  H310  1.069 .      S
C280  N94   1.454 .      S
C280  H311  1.108 .      S
C280  H312  1.105 .      S
C280  H313  1.107 .      S
N94   C281  1.444 .      S
N94   H314  1.044 .      S
C281  C282  1.476 .      S
C281  H315  1.104 .      S
C281  H316  1.089 .      S
C284  H317  1.076 .      S
C285  H318  1.081 .      S
C286  H319  1.081 .      S
C287  H320  1.070 .      S
C289  N97   1.452 .      S
C289  H321  1.109 .      S
C289  H322  1.099 .      S
C289  H323  1.105 .      S
N97   C290  1.454 .      S
N97   H324  1.037 .      S
C290  C291  1.484 .      S
C290  H325  1.100 .      S
C290  H326  1.105 .      S
C293  H327  1.077 .      S
C294  H328  1.081 .      S
C295  H329  1.081 .      S
C296  H330  1.079 .      S
C298  N100  1.418 .      S
C298  H331  1.108 1_455  S
C298  H332  1.085 .      S
C298  H333  1.086 .      S
N100  C299  1.432 .      S
N100  H334  1.031 .      S
C299  C300  1.419 .      S
C299  H335  1.097 .      S
C299  H336  1.101 .      S
C302  H337  1.072 .      S
C303  H338  1.080 .      S
C304  H339  1.081 .      S
C305  H340  1.074 .      S
H331  C298  1.108 1_655  S
C307  N103  1.447 .      S
C307  H341  1.107 .      S
C307  H342  1.080 .      S
C307  H343  1.088 .      S
N103  C308  1.420 .      S
N103  H344  1.031 .      S
C308  C309  1.444 .      S
C308  H345  1.102 .      S
C308  H346  1.087 .      S
C311  H347  1.078 .      S
C312  H348  1.081 .      S
C313  H349  1.081 .      S
C314  H350  1.081 .      S
C316  N106  1.446 .      S
C316  H351  1.105 .      S
C316  H352  1.096 .      S
C316  H353  1.103 .      S
N106  C317  1.446 .      S
N106  H354  1.035 .      S
C317  C318  1.485 .      S
C317  H355  1.085 .      S
C317  H356  1.095 .      S
C320  H357  1.060 .      S
C321  H358  1.081 .      S
C322  H359  1.068 .      S
C323  H360  1.063 .      S
C325  N109  1.455 .      S
C325  H361  1.109 .      S
C325  H362  1.109 1_554  S
C325  H363  1.107 .      S
N109  C326  1.458 .      S
N109  H364  1.039 .      S
C326  C327  1.466 .      S
C326  H365  1.100 1_554  S
C326  H366  1.096 .      S
C329  H367  1.070 .      S
C330  H368  1.079 .      S
C331  H369  1.081 .      S
C332  H370  1.079 .      S
N111  Zn25  2.155 1_554  S
H362  C325  1.109 1_556  S
H365  C326  1.100 1_556  S
C334  N112  1.439 .      S
C334  H371  1.095 .      S
C334  H372  1.108 .      S
C334  H373  1.096 .      S
N112  C335  1.428 .      S
N112  H374  1.038 .      S
C335  C336  1.453 .      S
C335  H375  1.105 .      S
C335  H376  1.100 .      S
C338  H377  1.065 .      S
C339  H378  1.069 .      S
C340  H379  1.072 .      S
C341  H380  1.075 .      S
C343  N115  1.445 .      S
C343  H381  1.099 .      S
C343  H382  1.096 .      S
C343  H383  1.097 .      S
N115  C344  1.455 .      S
N115  H384  1.044 .      S
C344  C345  1.458 .      S
C344  H385  1.093 .      S
C344  H386  1.095 .      S
N116  Zn21  2.049 1_545  S
C347  H387  1.073 .      S
C348  H388  1.081 1_545  S
C349  H389  1.081 .      S
C350  H390  1.050 .      S
H388  C348  1.081 1_565  S
C352  N118  1.430 1_654  S
C352  H391  1.101 1_655  S
C352  H392  1.105 1_655  S
C352  H393  1.089 .      S
N118  C352  1.430 1_456  S
N118  C353  1.424 1_455  S
N118  H394  1.035 1_455  S
C353  N118  1.424 1_655  S
C353  C354  1.408 1_655  S
C353  H395  1.055 .      S
C353  H396  1.102 1_655  S
C354  C353  1.408 1_455  S
C356  H397  1.079 .      S
C357  H398  1.076 .      S
C358  H399  1.070 .      S
C359  H400  1.079 .      S
N120  Zn7   2.161 1_565  S
H391  C352  1.101 1_455  S
H392  C352  1.105 1_455  S
H394  N118  1.035 1_655  S
H396  C353  1.102 1_455  S
C361  N121  1.455 .      S
C361  H401  1.105 .      S
C361  H402  1.108 .      S
C361  H403  1.105 .      S
N121  C362  1.453 .      S
N121  H404  1.043 .      S
C362  C363  1.491 .      S
C362  H405  1.101 .      S
C362  H406  1.097 .      S
N122  Zn21  2.090 1_554  S
C365  H407  1.075 .      S
C366  H408  1.056 .      S
C367  H409  1.070 .      S
C368  H410  1.053 .      S
C370  N124  1.451 1_655  S
C370  H411  1.104 1_556  S
C370  H412  1.108 .      S
C370  H413  1.105 .      S
N124  C370  1.451 1_455  S
N124  C371  1.448 .      S
N124  H414  1.042 .      S
C371  C372  1.494 .      S
C371  H415  1.095 .      S
C371  H416  1.100 .      S
C374  H417  1.067 .      S
C375  H418  1.081 .      S
C376  H419  1.080 .      S
C377  H420  1.079 .      S
H411  C370  1.104 1_554  S
C379  N127  1.442 .      S
C379  H421  1.106 .      S
C379  H422  1.101 .      S
C379  H423  1.109 .      S
N127  C380  1.438 .      S
N127  H424  1.041 .      S
C380  C381  1.479 .      S
C380  H425  1.095 .      S
C380  H426  1.095 .      S
C383  H427  1.075 .      S
C384  H428  1.078 .      S
C385  H429  1.081 1_556  S
C386  H430  1.062 .      S
H429  C385  1.081 1_554  S
C388  N130  1.454 .      S
C388  H431  1.109 .      S
C388  H432  1.107 .      S
C388  H433  1.109 .      S
N130  C389  1.446 .      S
N130  H434  1.041 .      S
C389  C390  1.498 .      S
C389  H435  1.099 .      S
C389  H436  1.107 .      S
C392  H437  1.043 .      S
C393  H438  1.080 .      S
C394  H439  1.060 1_554  S
C395  H440  1.074 .      S
N132  Zn22  2.087 1_554  S
H439  C394  1.060 1_556  S
C397  N133  1.454 .      S
C397  H441  1.110 .      S
C397  H442  1.110 .      S
C397  H443  1.109 .      S
N133  C398  1.450 .      S
N133  H444  1.032 .      S
C398  C399  1.508 .      S
C398  H445  1.106 .      S
C398  H446  1.106 .      S
C401  H447  1.043 .      S
C402  H448  1.072 .      S
C403  H449  1.077 .      S
C404  H450  1.025 .      S
C406  N136  1.455 .      S
C406  H451  1.106 .      S
C406  H452  1.106 .      S
C406  H453  1.107 .      S
N136  C407  1.455 .      S
N136  H454  1.043 .      S
C407  C408  1.471 1_545  S
C407  H455  1.090 .      S
C407  H456  1.100 .      S
C408  C407  1.471 1_565  S
C410  H457  1.034 .      S
C411  H458  1.080 .      S
C412  H459  1.081 .      S
C413  H460  1.038 .      S
C415  N139  1.452 .      S
C415  H461  1.109 .      S
C415  H462  1.098 .      S
C415  H463  1.094 1_545  S
N139  C416  1.458 .      S
N139  H464  1.044 .      S
C416  C417  1.470 .      S
C416  H465  1.099 .      S
C416  H466  1.091 1_545  S
N140  Zn23  2.117 1_545  S
C419  H467  1.056 .      S
C420  H468  1.072 .      S
C421  H469  1.068 .      S
C422  H470  1.061 .      S
H463  C415  1.094 1_565  S
H466  C416  1.091 1_565  S
C424  N142  1.450 .      S
C424  H471  1.104 .      S
C424  H472  1.105 .      S
C424  H473  1.105 .      S
N142  C425  1.443 .      S
N142  H474  1.041 .      S
C425  C426  1.468 .      S
C425  H475  1.088 .      S
C425  H476  1.102 .      S
C428  H477  1.057 .      S
C429  H478  1.068 .      S
C430  H479  1.064 .      S
C431  H480  1.065 .      S
C433  N145  1.455 1_556  S
C433  H481  1.100 1_556  S
C433  H482  1.107 .      S
C433  H483  1.106 .      S
N145  C433  1.455 1_554  S
N145  C434  1.437 1_565  S
N145  H484  1.030 .      S
C434  N145  1.437 1_545  S
C434  C435  1.485 .      S
C434  H485  1.090 1_554  S
C434  H486  1.107 .      S
N146  Zn28  2.150 1_545  S
C437  H487  1.071 .      S
C438  H488  1.080 .      S
C439  H489  1.081 .      S
C440  H490  1.069 .      S
N147  Zn24  2.139 1_554  S
H481  C433  1.100 1_554  S
H485  C434  1.090 1_556  S
C442  N148  1.454 .      S
C442  H491  1.109 1_556  S
C442  H492  1.109 .      S
C442  H493  1.109 .      S
N148  C443  1.449 .      S
N148  H494  1.044 .      S
C443  C444  1.494 .      S
C443  H495  1.090 .      S
C443  H496  1.101 .      S
C446  H497  1.055 .      S
C447  H498  1.081 .      S
C448  H499  1.081 .      S
C449  H500  1.071 .      S
H491  C442  1.109 1_554  S
C451  N151  1.450 1_455  S
C451  H501  1.088 .      S
C451  H502  1.101 .      S
C451  H503  1.098 .      S
N151  C451  1.450 1_655  S
N151  C452  1.422 .      S
N151  H504  1.025 .      S
C452  C453  1.451 .      S
C452  H505  1.098 .      S
C452  H506  1.070 1_655  S
N152  Zn9   2.098 1_556  S
C455  H507  1.067 .      S
C456  H508  1.078 .      S
C457  H509  1.065 .      S
C458  H510  1.080 .      S
H506  C452  1.070 1_455  S
C460  N154  1.449 .      S
C460  H511  1.107 .      S
C460  H512  1.107 .      S
C460  H513  1.110 .      S
N154  C461  1.435 .      S
N154  H514  1.038 .      S
C461  C462  1.469 .      S
C461  H515  1.100 .      S
C461  H516  1.099 .      S
C464  H517  1.064 .      S
C465  H518  1.064 .      S
C466  H519  1.071 .      S
C467  H520  1.055 .      S
C469  N157  1.449 .      S
C469  H521  1.102 .      S
C469  H522  1.103 .      S
C469  H523  1.105 .      S
N157  C470  1.456 .      S
N157  H524  1.036 .      S
C470  C471  1.504 .      S
C470  H525  1.104 .      S
C470  H526  1.107 .      S
C473  H527  1.058 .      S
C474  H528  1.081 .      S
C475  H529  1.081 .      S
C476  H530  1.079 .      S
C478  N160  1.454 .      S
C478  H531  1.108 .      S
C478  H532  1.108 .      S
C478  H533  1.104 .      S
N160  C479  1.451 .      S
N160  H534  1.041 .      S
C479  C480  1.489 .      S
C479  H535  1.098 .      S
C479  H536  1.090 .      S
C482  H537  1.075 .      S
C483  H538  1.081 .      S
C484  H539  1.081 .      S
C485  H540  1.077 .      S
C487  N163  1.451 .      S
C487  H541  1.100 .      S
C487  H542  1.093 .      S
C487  H543  1.102 1_455  S
N163  C488  1.452 .      S
N163  H544  1.036 1_455  S
C488  C489  1.477 1_445  S
C488  H545  1.103 1_455  S
C488  H546  1.085 .      S
C489  C488  1.477 1_665  S
C491  H547  1.072 .      S
C492  H548  1.062 .      S
C493  H549  1.059 .      S
C494  H550  1.075 .      S
H543  C487  1.102 1_655  S
H544  N163  1.036 1_655  S
H545  C488  1.103 1_655  S
C496  N166  1.453 .      S
C496  H551  1.096 .      S
C496  H552  1.092 .      S
C496  H553  1.106 .      S
N166  C497  1.439 .      S
N166  H554  1.033 .      S
C497  C498  1.440 .      S
C497  H555  1.086 .      S
C497  H556  1.089 .      S
C500  H557  1.069 .      S
C501  H558  1.081 .      S
C502  H559  1.081 .      S
C503  H560  1.042 .      S
C505  N169  1.447 .      S
C505  H561  1.107 .      S
C505  H562  1.098 .      S
C505  H563  1.100 .      S
N169  C506  1.452 .      S
N169  H564  1.043 .      S
C506  C507  1.465 .      S
C506  H565  1.100 .      S
C506  H566  1.098 .      S
C509  H567  1.065 .      S
C510  H568  1.081 .      S
C511  H569  1.077 .      S
C512  H570  1.070 .      S
C514  N172  1.454 .      S
C514  H571  1.109 .      S
C514  H572  1.108 .      S
C514  H573  1.107 .      S
N172  C515  1.456 .      S
N172  H574  1.043 .      S
C515  C516  1.491 .      S
C515  H575  1.102 .      S
C515  H576  1.100 .      S
C518  H577  1.077 .      S
C519  H578  1.074 .      S
C520  H579  1.080 .      S
C521  H580  1.062 .      S
C523  N175  1.455 .      S
C523  H581  1.105 .      S
C523  H582  1.109 .      S
C523  H583  1.107 .      S
N175  C524  1.440 .      S
N175  H584  1.039 .      S
C524  C525  1.492 .      S
C524  H585  1.091 .      S
C524  H586  1.105 .      S
C527  H587  1.071 .      S
C528  H588  1.079 .      S
C529  H589  1.081 .      S
C530  H590  1.072 .      S
C532  N178  1.462 .      S
C532  H591  1.103 .      S
C532  H592  1.106 .      S
C532  H593  1.107 .      S
N178  C533  1.431 .      S
N178  H594  1.036 .      S
C533  C534  1.475 .      S
C533  H595  1.070 .      S
C533  H596  1.100 .      S
C536  H597  1.072 .      S
C537  H598  1.081 .      S
C538  H599  1.079 .      S
C539  H600  1.079 .      S
C3    N2    1.393 1_455  A
C3    N3    1.379 .      A
N2    C3    1.393 1_655  A
N2    C4    1.341 1_655  A
C4    N2    1.341 1_455  A
C4    C5    1.373 1_455  A
C4    C9    1.361 .      A
C5    C4    1.373 1_655  A
C5    C6    1.379 1_655  A
C6    C5    1.379 1_455  A
C6    C7    1.385 .      A
C7    C8    1.383 .      A
C8    C9    1.370 .      A
C9    N3    1.358 .      A
C12   N5    1.401 .      A
C12   N6    1.388 .      A
N5    C13   1.337 .      A
C13   C14   1.352 .      A
C13   C18   1.352 .      A
C14   C15   1.369 .      A
C15   C16   1.372 .      A
C16   C17   1.373 .      A
C17   C18   1.388 .      A
C18   N6    1.361 .      A
C21   N8    1.382 .      A
C21   N9    1.389 .      A
N8    C22   1.344 .      A
C22   C23   1.356 .      A
C22   C27   1.347 .      A
C23   C24   1.369 1_556  A
C24   C23   1.369 1_554  A
C24   C25   1.375 .      A
C25   C26   1.369 .      A
C26   C27   1.372 1_554  A
C27   C26   1.372 1_556  A
C27   N9    1.332 .      A
C30   N11   1.397 .      A
C30   N12   1.395 .      A
N11   C31   1.325 .      A
C31   C32   1.344 .      A
C31   C36   1.332 .      A
C32   C33   1.359 .      A
C33   C34   1.359 .      A
C34   C35   1.392 .      A
C35   C36   1.325 .      A
C36   N12   1.328 .      A
C39   N14   1.410 .      A
C39   N15   1.394 .      A
N14   C40   1.348 .      A
C40   C41   1.373 .      A
C40   C45   1.371 .      A
C41   C42   1.381 .      A
C42   C43   1.383 .      A
C43   C44   1.381 .      A
C44   C45   1.377 .      A
C45   N15   1.361 .      A
C48   N17   1.390 .      A
C48   N18   1.378 .      A
N17   C49   1.356 .      A
C49   C50   1.375 .      A
C49   C54   1.369 .      A
C50   C51   1.385 .      A
C51   C52   1.390 .      A
C52   C53   1.384 .      A
C53   C54   1.374 .      A
C54   N18   1.343 .      A
C57   N20   1.381 .      A
C57   N21   1.390 .      A
N20   C58   1.337 .      A
C58   C59   1.374 .      A
C58   C63   1.368 .      A
C59   C60   1.378 .      A
C60   C61   1.384 .      A
C61   C62   1.384 .      A
C62   C63   1.374 .      A
C63   N21   1.363 .      A
C66   N23   1.404 .      A
C66   N24   1.387 .      A
N23   C67   1.345 .      A
C67   C68   1.367 .      A
C67   C72   1.362 .      A
C68   C69   1.374 .      A
C69   C70   1.375 .      A
C70   C71   1.382 .      A
C71   C72   1.374 .      A
C72   N24   1.362 .      A
C75   N26   1.376 .      A
C75   N27   1.382 .      A
N26   C76   1.346 .      A
C76   C77   1.370 .      A
C76   C81   1.369 .      A
C77   C78   1.378 .      A
C78   C79   1.388 .      A
C79   C80   1.381 .      A
C80   C81   1.367 .      A
C81   N27   1.348 .      A
C84   N29   1.381 .      A
C84   N30   1.394 .      A
N29   C85   1.349 .      A
C85   C86   1.379 .      A
C85   C90   1.360 .      A
C86   C87   1.378 .      A
C87   C88   1.376 .      A
C88   C89   1.371 .      A
C89   C90   1.366 .      A
C90   N30   1.345 .      A
C93   N32   1.377 .      A
C93   N33   1.383 .      A
N32   C94   1.338 .      A
C94   C95   1.354 .      A
C94   C99   1.355 .      A
C95   C96   1.373 .      A
C96   C97   1.379 .      A
C97   C98   1.372 .      A
C98   C99   1.369 .      A
C99   N33   1.350 .      A
C102  N35   1.400 .      A
C102  N36   1.380 1_655  A
N35   C103  1.356 .      A
C103  C104  1.368 .      A
C103  C108  1.364 1_655  A
C104  C105  1.385 .      A
C105  C106  1.389 .      A
C106  C107  1.382 1_655  A
C107  C106  1.382 1_455  A
C107  C108  1.372 .      A
C108  C103  1.364 1_455  A
C108  N36   1.336 .      A
N36   C102  1.380 1_455  A
C111  N38   1.408 1_455  A
C111  N39   1.399 .      A
N38   C111  1.408 1_655  A
N38   C112  1.345 .      A
C112  C113  1.361 .      A
C112  C117  1.367 1_655  A
C113  C114  1.374 .      A
C114  C115  1.377 1_655  A
C115  C114  1.377 1_455  A
C115  C116  1.386 .      A
C116  C117  1.364 .      A
C117  C112  1.367 1_455  A
C117  N39   1.338 .      A
C120  N41   1.389 .      A
C120  N42   1.381 .      A
N41   C121  1.361 .      A
C121  C122  1.366 .      A
C121  C126  1.357 .      A
C122  C123  1.379 .      A
C123  C124  1.372 .      A
C124  C125  1.364 .      A
C125  C126  1.363 .      A
C126  N42   1.328 .      A
C129  N44   1.366 .      A
C129  N45   1.387 .      A
N44   C130  1.352 .      A
C130  C131  1.378 .      A
C130  C135  1.367 .      A
C131  C132  1.382 .      A
C132  C133  1.385 .      A
C133  C134  1.380 .      A
C134  C135  1.367 .      A
C135  N45   1.348 .      A
C138  N47   1.388 .      A
C138  N48   1.366 .      A
N47   C139  1.365 .      A
C139  C140  1.386 .      A
C139  C144  1.366 .      A
C140  C141  1.383 .      A
C141  C142  1.384 .      A
C142  C143  1.380 .      A
C143  C144  1.375 .      A
C144  N48   1.346 .      A
C147  N50   1.380 .      A
C147  N51   1.387 .      A
N50   C148  1.345 .      A
C148  C149  1.368 .      A
C148  C153  1.351 .      A
C149  C150  1.373 .      A
C150  C151  1.375 .      A
C151  C152  1.363 .      A
C152  C153  1.360 .      A
C153  N51   1.334 .      A
C156  N53   1.392 .      A
C156  N54   1.377 .      A
N53   C157  1.333 .      A
C157  C158  1.362 .      A
C157  C162  1.362 .      A
C158  C159  1.375 .      A
C159  C160  1.374 .      A
C160  C161  1.378 .      A
C161  C162  1.377 .      A
C162  N54   1.364 .      A
C165  N56   1.378 1_556  A
C165  N57   1.372 .      A
N56   C165  1.378 1_554  A
N56   C166  1.347 .      A
C166  C167  1.372 .      A
C166  C171  1.343 1_554  A
C167  C168  1.382 .      A
C168  C169  1.384 1_554  A
C169  C168  1.384 1_556  A
C169  C170  1.379 .      A
C170  C171  1.374 .      A
C171  C166  1.343 1_556  A
C171  N57   1.348 .      A
C174  N59   1.381 .      A
C174  N60   1.383 .      A
N59   C175  1.346 .      A
C175  C176  1.352 .      A
C175  C180  1.350 .      A
C176  C177  1.383 .      A
C177  C178  1.372 .      A
C178  C179  1.367 .      A
C179  C180  1.369 .      A
C180  N60   1.336 .      A
C183  N62   1.401 1_545  A
C183  N63   1.386 .      A
N62   C183  1.401 1_565  A
N62   C184  1.365 .      A
C184  C185  1.371 .      A
C184  C189  1.370 1_565  A
C185  C186  1.386 .      A
C186  C187  1.386 1_565  A
C187  C186  1.386 1_545  A
C187  C188  1.379 .      A
C188  C189  1.373 .      A
C189  C184  1.370 1_545  A
C189  N63   1.335 .      A
C192  N65   1.398 .      A
C192  N66   1.385 .      A
N65   C193  1.351 .      A
C193  C194  1.371 .      A
C193  C198  1.380 .      A
C194  C195  1.385 .      A
C195  C196  1.391 .      A
C196  C197  1.384 .      A
C197  C198  1.372 .      A
C198  N66   1.347 .      A
C201  N68   1.381 .      A
C201  N69   1.390 .      A
N68   C202  1.341 .      A
C202  C203  1.366 .      A
C202  C207  1.343 .      A
C203  C204  1.383 .      A
C204  C205  1.389 .      A
C205  C206  1.387 .      A
C206  C207  1.368 .      A
C207  N69   1.343 .      A
C210  N71   1.375 .      A
C210  N72   1.358 .      A
N71   C211  1.354 .      A
C211  C212  1.383 .      A
C211  C216  1.357 .      A
C212  C213  1.373 .      A
C213  C214  1.372 .      A
C214  C215  1.369 .      A
C215  C216  1.371 .      A
C216  N72   1.347 .      A
C219  N74   1.373 .      A
C219  N75   1.355 .      A
N74   C220  1.360 .      A
C220  C221  1.379 .      A
C220  C225  1.350 .      A
C221  C222  1.381 .      A
C222  C223  1.381 .      A
C223  C224  1.379 .      A
C224  C225  1.381 .      A
C225  N75   1.348 .      A
C228  N77   1.373 .      A
C228  N78   1.392 .      A
N77   C229  1.313 .      A
C229  C230  1.355 .      A
C229  C234  1.353 .      A
C230  C231  1.352 .      A
C231  C232  1.382 .      A
C232  C233  1.367 .      A
C233  C234  1.339 .      A
C234  N78   1.350 .      A
C237  N80   1.403 .      A
C237  N81   1.389 .      A
N80   C238  1.354 .      A
C238  C239  1.373 .      A
C238  C243  1.376 .      A
C239  C240  1.384 .      A
C240  C241  1.388 .      A
C241  C242  1.383 .      A
C242  C243  1.373 .      A
C243  N81   1.349 .      A
C246  N83   1.397 .      A
C246  N84   1.376 .      A
N83   C247  1.330 .      A
C247  C248  1.354 .      A
C247  C252  1.346 .      A
C248  C249  1.362 .      A
C249  C250  1.350 .      A
C250  C251  1.370 .      A
C251  C252  1.354 .      A
C252  N84   1.337 .      A
C255  N86   1.392 .      A
C255  N87   1.385 .      A
N86   C256  1.343 .      A
C256  C257  1.360 .      A
C256  C261  1.357 .      A
C257  C258  1.384 .      A
C258  C259  1.387 .      A
C259  C260  1.382 .      A
C260  C261  1.374 .      A
C261  N87   1.345 .      A
C264  N89   1.379 .      A
C264  N90   1.382 .      A
N89   C265  1.324 .      A
C265  C266  1.342 .      A
C265  C270  1.339 .      A
C266  C267  1.349 .      A
C267  C268  1.380 .      A
C268  C269  1.389 .      A
C269  C270  1.372 .      A
C270  N90   1.344 .      A
C273  N92   1.377 .      A
C273  N93   1.383 .      A
N92   C274  1.352 .      A
C274  C275  1.375 .      A
C274  C279  1.360 .      A
C275  C276  1.380 .      A
C276  C277  1.389 .      A
C277  C278  1.364 .      A
C278  C279  1.357 .      A
C279  N93   1.338 .      A
C282  N95   1.385 .      A
C282  N96   1.404 .      A
N95   C283  1.346 .      A
C283  C284  1.370 .      A
C283  C288  1.370 .      A
C284  C285  1.386 .      A
C285  C286  1.392 .      A
C286  C287  1.387 .      A
C287  C288  1.371 .      A
C288  N96   1.349 .      A
C291  N98   1.389 .      A
C291  N99   1.394 .      A
N98   C292  1.347 .      A
C292  C293  1.370 .      A
C292  C297  1.367 .      A
C293  C294  1.386 .      A
C294  C295  1.390 .      A
C295  C296  1.385 .      A
C296  C297  1.374 .      A
C297  N99   1.348 .      A
C300  N101  1.370 .      A
C300  N102  1.379 .      A
N101  C301  1.345 .      A
C301  C302  1.372 .      A
C301  C306  1.374 .      A
C302  C303  1.383 .      A
C303  C304  1.387 .      A
C304  C305  1.384 .      A
C305  C306  1.367 .      A
C306  N102  1.357 .      A
C309  N104  1.371 .      A
C309  N105  1.376 .      A
N104  C310  1.350 .      A
C310  C311  1.372 .      A
C310  C315  1.369 .      A
C311  C312  1.386 .      A
C312  C313  1.392 .      A
C313  C314  1.386 .      A
C314  C315  1.373 .      A
C315  N105  1.348 .      A
C318  N107  1.394 .      A
C318  N108  1.367 .      A
N107  C319  1.331 .      A
C319  C320  1.368 .      A
C319  C324  1.347 .      A
C320  C321  1.370 .      A
C321  C322  1.380 .      A
C322  C323  1.382 .      A
C323  C324  1.357 .      A
C324  N108  1.344 .      A
C327  N110  1.395 .      A
C327  N111  1.387 .      A
N110  C328  1.358 .      A
C328  C329  1.375 .      A
C328  C333  1.371 .      A
C329  C330  1.383 .      A
C330  C331  1.385 .      A
C331  C332  1.381 .      A
C332  C333  1.374 .      A
C333  N111  1.347 .      A
C336  N113  1.377 .      A
C336  N114  1.401 .      A
N113  C337  1.339 .      A
C337  C338  1.345 .      A
C337  C342  1.361 .      A
C338  C339  1.365 .      A
C339  C340  1.392 .      A
C340  C341  1.358 .      A
C341  C342  1.359 .      A
C342  N114  1.329 .      A
C345  N116  1.380 .      A
C345  N117  1.376 .      A
N116  C346  1.345 .      A
C346  C347  1.379 1_546  A
C346  C351  1.355 .      A
C347  C346  1.379 1_564  A
C347  C348  1.380 1_565  A
C348  C347  1.380 1_545  A
C348  C349  1.382 .      A
C349  C350  1.382 1_554  A
C350  C349  1.382 1_556  A
C350  C351  1.347 .      A
C351  N117  1.346 .      A
C354  N119  1.358 .      A
C354  N120  1.395 1_455  A
N119  C355  1.333 .      A
C355  C356  1.360 .      A
C355  C360  1.365 .      A
C356  C357  1.372 .      A
C357  C358  1.386 .      A
C358  C359  1.379 1_455  A
C359  C358  1.379 1_655  A
C359  C360  1.348 1_655  A
C360  C359  1.348 1_455  A
C360  N120  1.340 1_455  A
N120  C354  1.395 1_655  A
N120  C360  1.340 1_655  A
C363  N122  1.390 .      A
C363  N123  1.404 .      A
N122  C364  1.334 .      A
C364  C365  1.366 1_564  A
C364  C369  1.348 .      A
C365  C364  1.366 1_546  A
C365  C366  1.374 1_556  A
C366  C365  1.374 1_554  A
C366  C367  1.369 .      A
C367  C368  1.349 .      A
C368  C369  1.335 1_545  A
C369  C368  1.335 1_565  A
C369  N123  1.330 .      A
C372  N125  1.386 .      A
C372  N126  1.377 .      A
N125  C373  1.345 .      A
C373  C374  1.364 .      A
C373  C378  1.353 .      A
C374  C375  1.382 1_556  A
C375  C374  1.382 1_554  A
C375  C376  1.387 .      A
C376  C377  1.384 1_554  A
C377  C376  1.384 1_556  A
C377  C378  1.376 .      A
C378  N126  1.344 .      A
C381  N128  1.385 .      A
C381  N129  1.387 .      A
N128  C382  1.343 .      A
C382  C383  1.370 .      A
C382  C387  1.362 .      A
C383  C384  1.380 1_556  A
C384  C383  1.380 1_554  A
C384  C385  1.389 1_554  A
C385  C384  1.389 1_556  A
C385  C386  1.379 .      A
C386  C387  1.361 .      A
C387  N129  1.342 .      A
C390  N131  1.403 .      A
C390  N132  1.391 .      A
N131  C391  1.336 .      A
C391  C392  1.345 .      A
C391  C396  1.343 .      A
C392  C393  1.360 .      A
C393  C394  1.366 .      A
C394  C395  1.387 1_554  A
C395  C394  1.387 1_556  A
C395  C396  1.362 1_556  A
C396  C395  1.362 1_554  A
C396  N132  1.334 .      A
C399  N134  1.389 .      A
C399  N135  1.411 .      A
N134  C400  1.336 .      A
C400  C401  1.332 .      A
C400  C405  1.330 .      A
C401  C402  1.361 .      A
C402  C403  1.363 .      A
C403  C404  1.360 .      A
C404  C405  1.336 .      A
C405  N135  1.328 .      A
C408  N137  1.388 .      A
C408  N138  1.386 .      A
N137  C409  1.357 .      A
C409  C410  1.367 .      A
C409  C414  1.356 .      A
C410  C411  1.379 .      A
C411  C412  1.371 .      A
C412  C413  1.372 .      A
C413  C414  1.355 .      A
C414  N138  1.336 .      A
C417  N140  1.390 .      A
C417  N141  1.375 .      A
N140  C418  1.348 .      A
C418  C419  1.364 .      A
C418  C423  1.353 .      A
C419  C420  1.376 1_655  A
C420  C419  1.376 1_455  A
C420  C421  1.373 .      A
C421  C422  1.369 .      A
C422  C423  1.360 1_455  A
C423  C422  1.360 1_655  A
C423  N141  1.338 .      A
C426  N143  1.373 .      A
C426  N144  1.419 1_655  A
N143  C427  1.329 .      A
C427  C428  1.351 .      A
C427  C432  1.359 1_655  A
C428  C429  1.353 1_655  A
C429  C428  1.353 1_455  A
C429  C430  1.375 .      A
C430  C431  1.368 .      A
C431  C432  1.350 .      A
C432  C427  1.359 1_455  A
C432  N144  1.342 .      A
N144  C426  1.419 1_455  A
C435  N146  1.398 .      A
C435  N147  1.385 .      A
N146  C436  1.350 .      A
C436  C437  1.373 .      A
C436  C441  1.366 .      A
C437  C438  1.384 .      A
C438  C439  1.386 .      A
C439  C440  1.381 .      A
C440  C441  1.368 .      A
C441  N147  1.343 .      A
C444  N149  1.382 .      A
C444  N150  1.395 .      A
N149  C445  1.343 .      A
C445  C446  1.368 .      A
C445  C450  1.351 .      A
C446  C447  1.381 .      A
C447  C448  1.383 .      A
C448  C449  1.381 .      A
C449  C450  1.371 .      A
C450  N150  1.347 .      A
C453  N152  1.379 1_654  A
C453  N153  1.380 1_554  A
N152  C453  1.379 1_456  A
N152  C454  1.340 .      A
C454  C455  1.360 .      A
C454  C459  1.363 1_455  A
C455  C456  1.379 .      A
C456  C457  1.384 1_455  A
C457  C456  1.384 1_655  A
C457  C458  1.378 .      A
C458  C459  1.365 .      A
C459  C454  1.363 1_655  A
C459  N153  1.339 .      A
N153  C453  1.380 1_556  A
C462  N155  1.391 .      A
C462  N156  1.382 .      A
N155  C463  1.338 .      A
C463  C464  1.348 1_545  A
C463  C468  1.333 .      A
C464  C463  1.348 1_565  A
C464  C465  1.388 1_556  A
C465  C464  1.388 1_554  A
C465  C466  1.368 1_565  A
C466  C465  1.368 1_545  A
C466  C467  1.364 1_554  A
C467  C466  1.364 1_556  A
C467  C468  1.337 .      A
C468  N156  1.317 .      A
C471  N158  1.397 .      A
C471  N159  1.394 1_556  A
N158  C472  1.349 1_556  A
C472  N158  1.349 1_554  A
C472  C473  1.364 .      A
C472  C477  1.368 .      A
C473  C474  1.380 .      A
C474  C475  1.382 .      A
C475  C476  1.381 .      A
C476  C477  1.373 .      A
C477  N159  1.342 .      A
N159  C471  1.394 1_554  A
C480  N161  1.385 .      A
C480  N162  1.377 .      A
N161  C481  1.341 .      A
C481  C482  1.368 .      A
C481  C486  1.357 .      A
C482  C483  1.385 .      A
C483  C484  1.389 .      A
C484  C485  1.384 .      A
C485  C486  1.372 .      A
C486  N162  1.346 .      A
C489  N164  1.423 1_655  A
C489  N165  1.376 .      A
N164  C489  1.423 1_455  A
N164  C490  1.350 1_455  A
C490  N164  1.350 1_655  A
C490  C491  1.366 1_655  A
C490  C495  1.364 .      A
C491  C490  1.366 1_455  A
C491  C492  1.379 1_455  A
C492  C491  1.379 1_655  A
C492  C493  1.366 .      A
C493  C494  1.361 .      A
C494  C495  1.356 .      A
C495  N165  1.326 .      A
C498  N167  1.360 .      A
C498  N168  1.391 1_545  A
N167  C499  1.343 .      A
C499  C500  1.373 .      A
C499  C504  1.362 1_545  A
C500  C501  1.378 1_545  A
C501  C500  1.378 1_565  A
C501  C502  1.380 .      A
C502  C503  1.380 .      A
C503  C504  1.366 .      A
C504  C499  1.362 1_565  A
C504  N168  1.358 .      A
N168  C498  1.391 1_565  A
C507  N170  1.412 .      A
C507  N171  1.383 .      A
N170  C508  1.345 .      A
C508  C509  1.365 .      A
C508  C513  1.370 .      A
C509  C510  1.379 .      A
C510  C511  1.385 .      A
C511  C512  1.386 .      A
C512  C513  1.362 .      A
C513  N171  1.349 .      A
C516  N173  1.373 .      A
C516  N174  1.378 .      A
N173  C517  1.332 .      A
C517  C518  1.368 .      A
C517  C522  1.351 .      A
C518  C519  1.372 .      A
C519  C520  1.382 .      A
C520  C521  1.383 .      A
C521  C522  1.359 .      A
C522  N174  1.343 .      A
C525  N176  1.382 .      A
C525  N177  1.401 .      A
N176  C526  1.356 .      A
C526  C527  1.373 .      A
C526  C531  1.367 .      A
C527  C528  1.388 .      A
C528  C529  1.381 .      A
C529  C530  1.374 .      A
C530  C531  1.369 .      A
C531  N177  1.336 .      A
C534  N179  1.361 .      A
C534  N180  1.402 .      A
N179  C535  1.355 .      A
C535  C536  1.374 .      A
C535  C540  1.364 .      A
C536  C537  1.383 .      A
C537  C538  1.386 .      A
C538  C539  1.382 .      A
C539  C540  1.371 .      A
C540  N180  1.340 .      A
