data_str_m1_o12014_NES
_audit_creation_date              2015-10-01T06:37:20-0700
_symmetry_space_group_name_H-M    P1
_symmetry_Int_Tables_number       1
_space_group_crystal_system       triclinic
loop_
_symmetry_equiv_pos_as_xyz
  x,y,z
_cell_length_a                    28.2791107
_cell_length_b                    29.0717328
_cell_length_c                    30.4296555
_cell_angle_alpha                 63.5477358
_cell_angle_beta                  77.9572211
_cell_angle_gamma                 61.2312123
_cell_volume                      19632.6793577

loop_
_atom_site_label
_atom_site_type_symbol
_atom_site_description
_atom_site_fract_x
_atom_site_fract_y
_atom_site_fract_z
_atom_type_partial_charge
Zn1   Zn    Zn3+2 0.836427 0.686654 0.770636 0.000000
Zn2   Zn    Zn3+2 0.090728 0.857754 0.162418 0.000000
Zn3   Zn    Zn3+2 0.080776 0.065590 0.757740 0.000000
Zn4   Zn    Zn3+2 0.907773 0.233659 0.153517 0.000000
Zn5   Zn    Zn3+2 0.062100 0.057620 0.353324 0.000000
Zn6   Zn    Zn3+2 0.718657 0.557912 0.343894 0.000000
Zn7   Zn    Zn3+2 0.213842 0.791693 0.359067 0.000000
Zn8   Zn    Zn3+2 0.826716 0.491884 0.147218 0.000000
Zn9   Zn    Zn3+2 0.023685 0.679298 0.155740 0.000000
Zn10  Zn    Zn3+2 0.023721 0.878274 0.769497 0.000000
Zn11  Zn    Zn3+2 0.465131 0.140702 0.030124 0.000000
Zn12  Zn    Zn3+2 0.459288 0.903868 0.034082 0.000000
Zn13  Zn    Zn3+2 0.455910 0.027538 0.272461 0.000000
Zn14  Zn    Zn3+2 0.216414 0.360680 0.969700 0.000000
Zn15  Zn    Zn3+2 0.718683 0.114729 0.966012 0.000000
Zn16  Zn    Zn3+2 0.210799 0.174679 0.347113 0.000000
Zn17  Zn    Zn3+2 0.701405 0.928071 0.346618 0.000000
Zn18  Zn    Zn3+2 0.705967 0.746978 0.961014 0.000000
Zn19  Zn    Zn3+2 0.464472 0.783858 0.280094 0.000000
Zn20  Zn    Zn3+2 0.831414 0.051022 0.170342 0.000000
Zn21  Zn    Zn3+2 0.205607 0.990202 0.961883 0.000000
Zn22  Zn    Zn3+2 0.822978 0.262829 0.765011 0.000000
Zn23  Zn    Zn3+2 0.868431 0.853290 0.958773 0.000000
Zn24  Zn    Zn3+2 0.066389 0.244789 0.961904 0.000000
Zn25  Zn    Zn3+2 0.089339 0.427876 0.156725 0.000000
Zn26  Zn    Zn3+2 0.828207 0.868470 0.539559 0.000000
Zn27  Zn    Zn3+2 0.094564 0.623474 0.774231 0.000000
Zn28  Zn    Zn3+2 0.082579 0.248581 0.534612 0.000000
Zn29  Zn    Zn3+2 0.860169 0.673964 0.349358 0.000000
Zn30  Zn    Zn3+2 0.826468 0.303670 0.539587 0.000000
Zn31  Zn    Zn3+2 0.903401 0.441639 0.765835 0.000000
Zn32  Zn    Zn3+2 0.014970 0.492051 0.538551 0.000000
Zn33  Zn    Zn3+2 0.898988 0.045780 0.553171 0.000000
Zn34  Zn    Zn3+2 0.088186 0.668563 0.541290 0.000000
C1    C     C_3   0.964866 0.498559 0.764559 0.000000
C2    C     C_3   0.921971 0.519358 0.798504 0.000000
C3    C     C_3   0.934407 0.543315 0.825843 0.000000
C4    C     C_R   0.870026 0.555488 0.774150 0.000000
N1    N     N_R   0.833350 0.611354 0.769787 0.000000
C5    C     C_R   0.786637 0.611841 0.764689 0.000000
C6    C     C_R   0.735224 0.649501 0.770764 0.000000
C7    C     C_R   0.692363 0.641346 0.766834 0.000000
C8    C     C_R   0.701182 0.594883 0.758156 0.000000
C9    C     C_R   0.753375 0.554372 0.756478 0.000000
C10   C     C_R   0.795839 0.562196 0.762196 0.000000
N2    N     N_R   0.849140 0.525084 0.768306 0.000000
C11   C     C_2   0.655274 0.586770 0.753825 0.000000
O1    O     O_2   0.609261 0.621872 0.756065 0.000000
O2    O     O_2   0.663646 0.540421 0.747585 0.000000
H1    H     H_    0.950880 0.528096 0.727122 0.000000
H2    H     H_    0.004833 0.488930 0.773357 0.000000
H3    H     H_    0.970121 0.457669 0.768015 0.000000
H4    H     H_    0.917035 0.481983 0.824183 0.000000
H5    H     H_    0.897756 0.575801 0.834381 0.000000
H6    H     H_    0.955291 0.509450 0.859559 0.000000
H7    H     H_    0.962122 0.559659 0.803790 0.000000
H8    H     H_    0.728005 0.681974 0.782619 0.000000
H9    H     H_    0.651967 0.671169 0.771616 0.000000
H10   H     H_    0.759739 0.517386 0.751698 0.000000
H11   H     H_    0.633215 0.535201 0.745193 0.000000
C12   C     C_3   0.080813 0.666661 0.252860 0.000000
C13   C     C_3   0.113944 0.696674 0.221653 0.000000
C14   C     C_3   0.166781 0.656464 0.206859 0.000000
C15   C     C_R   0.083904 0.739768 0.176375 0.000000
N3    N     N_R   0.072859 0.722717 0.145341 0.000000
C16   C     C_R   0.068223 0.767274 0.102037 0.000000
C17   C     C_R   0.085562 0.766062 0.056841 0.000000
C18   C     C_R   0.076920 0.816943 0.017133 0.000000
C19   C     C_R   0.057883 0.866287 0.024944 0.000000
C20   C     C_R   0.055570 0.862448 0.071936 0.000000
C21   C     C_R   0.066450 0.810772 0.109010 0.000000
N4    N     N_R   0.080165 0.794738 0.154593 0.000000
C22   C     C_2   0.054009 0.919277 0.985811 0.000000
O3    O     O_2   0.075323 0.920811 0.946484 0.000000
O4    O     O_2   0.029883 0.965985 0.995507 0.000000
H12   H     H_    0.065619 0.654740 0.231187 0.000000
H13   H     H_    0.105900 0.627635 0.283209 0.000000
H14   H     H_    0.045908 0.697122 0.265722 0.000000
H15   H     H_    0.120869 0.716538 0.241659 0.000000
H16   H     H_    0.184972 0.681677 0.176459 0.000000
H17   H     H_    0.194869 0.627578 0.238478 0.000000
H18   H     H_    0.160442 0.632493 0.190931 0.000000
H19   H     H_    0.114137 0.727078 0.053271 0.000000
H20   H     H_    0.089104 0.816835 0.981098 0.000000
H21   H     H_    0.051590 0.896524 0.079765 0.000000
H22   H     H_    0.028348 0.002625 0.974188 0.000000
C23   C     C_3   0.144440 0.855840 0.865531 0.000000
C24   C     C_3   0.139030 0.909050 0.820072 0.000000
C25   C     C_3   0.189954 0.891269 0.790404 0.000000
C26   C     C_R   0.089587 0.939852 0.787898 0.000000
N5    N     N_R   0.081291 0.994372 0.753613 0.000000
C27   C     C_R   0.076944 0.991315 0.711962 0.000000
C28   C     C_R   0.078051 0.028249 0.665282 0.000000
C29   C     C_R   0.102614 0.005500 0.630866 0.000000
C30   C     C_R   0.134416 0.947571 0.647176 0.000000
C31   C     C_R   0.125528 0.913064 0.693146 0.000000
C32   C     C_R   0.085167 0.938299 0.720602 0.000000
N6    N     N_R   0.080630 0.909358 0.768387 0.000000
C33   C     C_2   0.182397 0.925023 0.619741 0.000000
O5    O     O_2   0.187184 0.954761 0.577255 0.000000
O6    O     O_2   0.224312 0.874719 0.643374 0.000000
H23   H     H_    0.182151 0.838920 0.884985 0.000000
H24   H     H_    0.111323 0.866001 0.891046 0.000000
H25   H     H_    0.147951 0.822092 0.855771 0.000000
H26   H     H_    0.138436 0.939174 0.832823 0.000000
H27   H     H_    0.225251 0.878564 0.811051 0.000000
H28   H     H_    0.196423 0.854138 0.783951 0.000000
H29   H     H_    0.187240 0.926572 0.754461 0.000000
H30   H     H_    0.065057 0.071733 0.656809 0.000000
H31   H     H_    0.106771 0.032553 0.594050 0.000000
H32   H     H_    0.152214 0.868081 0.708273 0.000000
H33   H     H_    0.258017 0.861555 0.626797 0.000000
C34   C     C_3   0.038750 0.028323 0.540579 0.000000
C35   C     C_3   0.047407 0.032540 0.488633 0.000000
C36   C     C_3   0.086454 0.976653 0.488295 0.000000
C37   C     C_R   0.999522 0.046943 0.463997 0.000000
N7    N     N_R   0.950010 0.051427 0.487125 0.000000
C38   C     C_R   0.917825 0.079861 0.448422 0.000000
C39   C     C_R   0.864114 0.107459 0.452721 0.000000
C40   C     C_R   0.834367 0.154572 0.414502 0.000000
C41   C     C_R   0.861438 0.177562 0.375224 0.000000
C42   C     C_R   0.916034 0.144608 0.368524 0.000000
C43   C     C_R   0.944527 0.092617 0.405145 0.000000
N8    N     N_R   0.998793 0.067353 0.412841 0.000000
C44   C     C_2   0.836099 0.240114 0.352933 0.000000
O7    O     O_2   0.863753 0.264819 0.343009 0.000000
O8    O     O_2   0.782129 0.269614 0.354309 0.000000
H34   H     H_    0.996804 0.039261 0.552778 0.000000
H35   H     H_    0.066055 0.985395 0.566099 0.000000
H36   H     H_    0.049946 0.058627 0.541955 0.000000
H37   H     H_    0.062708 0.064761 0.466433 0.000000
H38   H     H_    0.064798 0.951603 0.500810 0.000000
H39   H     H_    0.092450 0.983240 0.449974 0.000000
H40   H     H_    0.122986 0.956360 0.510444 0.000000
H41   H     H_    0.848422 0.101770 0.488132 0.000000
H42   H     H_    0.793164 0.180393 0.421480 0.000000
H43   H     H_    0.938573 0.164241 0.343033 0.000000
H44   H     H_    0.765257 0.310398 0.345142 0.000000
C45   C     C_3   0.003552 0.244142 0.224851 0.000000
C46   C     C_3   0.971160 0.217438 0.264270 0.000000
C47   C     C_3   0.912061 0.255195 0.253874 0.000000
C48   C     C_R   0.978697 0.167095 0.258312 0.000000
N9    N     N_R   0.957547 0.175284 0.216868 0.000000
C49   C     C_R   0.983458 0.123216 0.217341 0.000000
C50   C     C_R   0.988039 0.114529 0.176321 0.000000
C51   C     C_R   0.037324 0.079053 0.166755 0.000000
C52   C     C_R   0.077897 0.051593 0.199393 0.000000
C53   C     C_R   0.067663 0.048384 0.246552 0.000000
C54   C     C_R   0.019437 0.086292 0.255465 0.000000
N10   N     N_R   0.014652 0.110765 0.285584 0.000000
C55   C     C_2   0.132062 0.032462 0.181131 0.000000
O9    O     O_2   0.143168 0.016076 0.148335 0.000000
O10   O     O_2   0.169401 0.034741 0.199062 0.000000
H45   H     H_    0.019869 0.222630 0.199335 0.000000
H46   H     H_    0.978699 0.289836 0.204545 0.000000
H47   H     H_    0.037385 0.239370 0.241546 0.000000
H48   H     H_    0.984468 0.207398 0.300514 0.000000
H49   H     H_    0.889168 0.230043 0.272441 0.000000
H50   H     H_    0.893706 0.294157 0.260331 0.000000
H51   H     H_    0.908828 0.268467 0.215588 0.000000
H52   H     H_    0.959627 0.143194 0.146758 0.000000
H53   H     H_    0.045645 0.080956 0.130409 0.000000
H54   H     H_    0.099808 0.027006 0.271534 0.000000
H55   H     H_    0.204648 0.022974 0.185283 0.000000
C56   C     C_3   0.238544 0.934668 0.349839 0.000000
C57   C     C_3   0.201043 0.944177 0.314708 0.000000
C58   C     C_3   0.232039 0.906825 0.286033 0.000000
C59   C     C_R   0.156772 0.929778 0.343820 0.000000
N11   N     N_R   0.166760 0.872413 0.367940 0.000000
C60   C     C_R   0.128623 0.875303 0.402141 0.000000
C61   C     C_R   0.133114 0.833958 0.447987 0.000000
C62   C     C_R   0.092228 0.846571 0.480130 0.000000
C63   C     C_R   0.046575 0.898763 0.464571 0.000000
C64   C     C_R   0.047500 0.942282 0.420953 0.000000
C65   C     C_R   0.092670 0.930416 0.393816 0.000000
N12   N     N_R   0.109378 0.967933 0.359004 0.000000
C66   C     C_2   0.997334 0.908474 0.493129 0.000000
O11   O     O_2   0.993669 0.869787 0.529674 0.000000
O12   O     O_2   0.954223 0.959617 0.477718 0.000000
H56   H     H_    0.234532 0.904501 0.387038 0.000000
H57   H     H_    0.281355 0.918198 0.339186 0.000000
H58   H     H_    0.226083 0.976938 0.349472 0.000000
H59   H     H_    0.185407 0.989547 0.289303 0.000000
H60   H     H_    0.223404 0.932705 0.246670 0.000000
H61   H     H_    0.275721 0.887684 0.290629 0.000000
H62   H     H_    0.221561 0.871509 0.296853 0.000000
H63   H     H_    0.169906 0.795939 0.460875 0.000000
H64   H     H_    0.096205 0.814258 0.516357 0.000000
H65   H     H_    0.013725 0.983323 0.407610 0.000000
H66   H     H_    0.921036 0.964915 0.495749 0.000000
C67   C     C_3   0.844055 0.452346 0.469810 0.000000
C68   C     C_3   0.789544 0.453635 0.482205 0.000000
C69   C     C_3   0.746520 0.511204 0.478958 0.000000
C70   C     C_R   0.773747 0.435262 0.451923 0.000000
N13   N     N_R   0.739888 0.472812 0.409647 0.000000
C71   C     C_R   0.717410 0.440387 0.411714 0.000000
C72   C     C_R   0.674091 0.458320 0.384769 0.000000
C73   C     C_R   0.658336 0.418010 0.389898 0.000000
C74   C     C_R   0.686482 0.360908 0.421406 0.000000
C75   C     C_R   0.727566 0.344827 0.451147 0.000000
C76   C     C_R   0.740159 0.386163 0.448040 0.000000
N14   N     N_R   0.775946 0.380917 0.475489 0.000000
C77   C     C_2   0.672817 0.317438 0.423282 0.000000
O13   O     O_2   0.636829 0.330997 0.397342 0.000000
O14   O     O_2   0.700734 0.262095 0.452954 0.000000
H67   H     H_    0.866305 0.426466 0.448404 0.000000
H68   H     H_    0.838350 0.496194 0.448268 0.000000
H69   H     H_    0.866947 0.433795 0.503810 0.000000
H70   H     H_    0.792444 0.422184 0.520465 0.000000
H71   H     H_    0.709251 0.507793 0.496629 0.000000
H72   H     H_    0.759835 0.528328 0.496955 0.000000
H73   H     H_    0.738932 0.539793 0.440103 0.000000
H74   H     H_    0.653084 0.502705 0.360333 0.000000
H75   H     H_    0.625095 0.431248 0.367831 0.000000
H76   H     H_    0.750869 0.300882 0.473853 0.000000
H77   H     H_    0.692438 0.233559 0.453038 0.000000
C78   C     C_3   0.684695 0.487416 0.264574 0.000000
C79   C     C_3   0.743035 0.463186 0.278417 0.000000
C80   C     C_3   0.778030 0.413604 0.263555 0.000000
C81   C     C_R   0.761298 0.508800 0.254024 0.000000
N15   N     N_R   0.788439 0.516735 0.209053 0.000000
C82   C     C_R   0.794909 0.561927 0.201845 0.000000
C83   C     C_R   0.821284 0.585059 0.163099 0.000000
C84   C     C_R   0.833315 0.624935 0.162601 0.000000
C85   C     C_R   0.818315 0.642405 0.200293 0.000000
C86   C     C_R   0.787654 0.621344 0.239076 0.000000
C87   C     C_R   0.776428 0.579236 0.239725 0.000000
N16   N     N_R   0.753022 0.546786 0.274655 0.000000
C88   C     C_2   0.839239 0.680842 0.197654 0.000000
O15   O     O_2   0.872445 0.689952 0.166743 0.000000
O16   O     O_2   0.822525 0.706585 0.228400 0.000000
H78   H     H_    0.679181 0.511291 0.224399 0.000000
H79   H     H_    0.672417 0.452557 0.277662 0.000000
H80   H     H_    0.658242 0.517663 0.281575 0.000000
H81   H     H_    0.746918 0.447632 0.318185 0.000000
H82   H     H_    0.818064 0.388244 0.281078 0.000000
H83   H     H_    0.758421 0.385471 0.272813 0.000000
H84   H     H_    0.784461 0.430552 0.224236 0.000000
H85   H     H_    0.836276 0.568964 0.135507 0.000000
H86   H     H_    0.856101 0.641504 0.132806 0.000000
H87   H     H_    0.774709 0.637202 0.267304 0.000000
H88   H     H_    0.833898 0.734965 0.223320 0.000000
C89   C     C_3   0.131710 0.921642 0.238915 0.000000
C90   C     C_3   0.105563 0.887828 0.274294 0.000000
C91   C     C_3   0.045632 0.920709 0.267349 0.000000
C92   C     C_R   0.135757 0.832530 0.270433 0.000000
N17   N     N_R   0.133384 0.820415 0.231444 0.000000
C93   C     C_R   0.178138 0.769861 0.240968 0.000000
C94   C     C_R   0.202352 0.743003 0.209806 0.000000
C95   C     C_R   0.249754 0.692706 0.224976 0.000000
C96   C     C_R   0.271488 0.669995 0.271207 0.000000
C97   C     C_R   0.249990 0.701905 0.299519 0.000000
C98   C     C_R   0.204603 0.753020 0.282182 0.000000
N18   N     N_R   0.181061 0.793349 0.300409 0.000000
C99   C     C_2   0.317582 0.613017 0.289416 0.000000
O17   O     O_2   0.339356 0.587088 0.262901 0.000000
O18   O     O_2   0.335150 0.588419 0.335944 0.000000
H89   H     H_    0.173714 0.892269 0.236185 0.000000
H90   H     H_    0.111341 0.944487 0.202892 0.000000
H91   H     H_    0.131805 0.947336 0.255902 0.000000
H92   H     H_    0.113278 0.880529 0.311065 0.000000
H93   H     H_    0.026578 0.893555 0.292907 0.000000
H94   H     H_    0.031932 0.957562 0.277162 0.000000
H95   H     H_    0.034880 0.938846 0.228603 0.000000
H96   H     H_    0.183884 0.760538 0.174893 0.000000
H97   H     H_    0.268306 0.670057 0.201175 0.000000
H98   H     H_    0.268485 0.688047 0.333687 0.000000
H99   H     H_    0.365239 0.550757 0.347931 0.000000
C100  C     C_3   0.095630 0.763414 0.368914 0.000000
C101  C     C_3   0.122705 0.709114 0.412655 0.000000
C102  C     C_3   0.160589 0.660884 0.397099 0.000000
C103  C     C_R   0.153259 0.715342 0.442292 0.000000
N19   N     N_R   0.198119 0.726508 0.424251 0.000000
C104  C     C_R   0.229008 0.695286 0.464933 0.000000
C105  C     C_R   0.282900 0.678919 0.466790 0.000000
C106  C     C_R   0.308449 0.644583 0.511827 0.000000
C107  C     C_R   0.279920 0.627771 0.554074 0.000000
C108  C     C_R   0.226050 0.641335 0.551022 0.000000
C109  C     C_R   0.201227 0.674731 0.505658 0.000000
N20   N     N_R   0.151259 0.688613 0.493115 0.000000
C110  C     C_2   0.307518 0.595086 0.601763 0.000000
O19   O     O_2   0.356378 0.575746 0.603834 0.000000
O20   O     O_2   0.278913 0.588942 0.643425 0.000000
H100  H     H_    0.105636 0.755097 0.335285 0.000000
H101  H     H_    0.051872 0.779047 0.374167 0.000000
H102  H     H_    0.107048 0.795649 0.366883 0.000000
H103  H     H_    0.091208 0.697312 0.436065 0.000000
H104  H     H_    0.173217 0.619879 0.429903 0.000000
H105  H     H_    0.139730 0.660198 0.370685 0.000000
H106  H     H_    0.196810 0.666599 0.380058 0.000000
H107  H     H_    0.305423 0.689945 0.433777 0.000000
H108  H     H_    0.351009 0.631012 0.513707 0.000000
H109  H     H_    0.205137 0.624651 0.583005 0.000000
H110  H     H_    0.297325 0.568915 0.674602 0.000000
C111  C     C_3   0.957698 0.324282 0.112529 0.000000
C112  C     C_3   0.906504 0.375148 0.110211 0.000000
C113  C     C_3   0.880488 0.403056 0.060747 0.000000
C114  C     C_R   0.866574 0.364466 0.144762 0.000000
N21   N     N_R   0.855769 0.320758 0.149448 0.000000
C115  C     C_R   0.802579 0.342782 0.156255 0.000000
C116  C     C_R   0.769765 0.321148 0.154443 0.000000
C117  C     C_R   0.715247 0.350641 0.159485 0.000000
C118  C     C_R   0.695329 0.397442 0.171339 0.000000
C119  C     C_R   0.729017 0.419987 0.171095 0.000000
C120  C     C_R   0.783018 0.394664 0.159688 0.000000
N22   N     N_R   0.823282 0.411332 0.152168 0.000000
C121  C     C_2   0.638636 0.421719 0.185758 0.000000
O21   O     O_2   0.607984 0.405632 0.181241 0.000000
O22   O     O_2   0.620888 0.459138 0.206811 0.000000
H111  H     H_    0.955756 0.284540 0.139012 0.000000
H112  H     H_    0.966435 0.324698 0.075452 0.000000
H113  H     H_    0.989032 0.329540 0.123406 0.000000
H114  H     H_    0.916272 0.399642 0.121156 0.000000
H115  H     H_    0.842648 0.442318 0.057371 0.000000
H116  H     H_    0.909509 0.411374 0.032322 0.000000
H117  H     H_    0.869344 0.374337 0.056043 0.000000
H118  H     H_    0.785470 0.283737 0.146754 0.000000
H119  H     H_    0.688832 0.335101 0.156320 0.000000
H120  H     H_    0.712637 0.453811 0.182912 0.000000
H121  H     H_    0.584544 0.471795 0.219158 0.000000
C122  C     C_3   0.956232 0.058043 0.659860 0.000000
C123  C     C_3   0.926752 0.022833 0.686396 0.000000
C124  C     C_3   0.867129 0.057886 0.676450 0.000000
C125  C     C_R   0.951546 0.977100 0.668972 0.000000
N23   N     N_R   0.948776 0.985686 0.620379 0.000000
C126  C     C_R   0.993183 0.938375 0.619892 0.000000
C127  C     C_R   0.013840 0.924032 0.581571 0.000000
C128  C     C_R   0.066475 0.881768 0.585352 0.000000
C129  C     C_R   0.096692 0.856363 0.626655 0.000000
C130  C     C_R   0.071086 0.863538 0.667964 0.000000
C131  C     C_R   0.019572 0.905322 0.663500 0.000000
N24   N     N_R   0.992849 0.925834 0.697058 0.000000
C132  C     C_2   0.155557 0.826407 0.624814 0.000000
O23   O     O_2   0.178202 0.831988 0.585356 0.000000
O24   O     O_2   0.185066 0.792587 0.666312 0.000000
H122  H     H_    0.993537 0.031750 0.645734 0.000000
H123  H     H_    0.932848 0.094079 0.627526 0.000000
H124  H     H_    0.965415 0.070809 0.685045 0.000000
H125  H     H_    0.935493 0.003527 0.725907 0.000000
H126  H     H_    0.850412 0.086362 0.696153 0.000000
H127  H     H_    0.860651 0.080928 0.637217 0.000000
H128  H     H_    0.845193 0.032588 0.687382 0.000000
H129  H     H_    0.991321 0.950831 0.548486 0.000000
H130  H     H_    0.085960 0.869822 0.555488 0.000000
H131  H     H_    0.092700 0.843159 0.700823 0.000000
H132  H     H_    0.223821 0.772464 0.664485 0.000000
C133  C     C_3   0.576458 0.959075 0.003375 0.000000
C134  C     C_3   0.530307 0.014451 0.976166 0.000000
C135  C     C_3   0.517766 0.015045 0.929774 0.000000
C136  C     C_R   0.482213 0.023829 0.008181 0.000000
N25   N     N_R   0.451750 0.992449 0.021630 0.000000
C137  C     C_R   0.405735 0.029657 0.034987 0.000000
C138  C     C_R   0.359718 0.024428 0.052699 0.000000
C139  C     C_R   0.322978 0.061939 0.073074 0.000000
C140  C     C_R   0.327778 0.107594 0.070707 0.000000
C141  C     C_R   0.372667 0.114169 0.050920 0.000000
C142  C     C_R   0.410668 0.074849 0.033924 0.000000
N26   N     N_R   0.458967 0.072174 0.019838 0.000000
C143  C     C_2   0.288719 0.143934 0.094730 0.000000
O25   O     O_2   0.291491 0.185866 0.090853 0.000000
O26   O     O_2   0.245851 0.135342 0.116129 0.000000
H133  H     H_    0.578817 0.925022 0.994723 0.000000
H134  H     H_    0.614148 0.963702 0.992863 0.000000
H135  H     H_    0.568951 0.950001 0.042662 0.000000
H136  H     H_    0.541431 0.049660 0.966042 0.000000
H137  H     H_    0.484743 0.057479 0.909357 0.000000
H138  H     H_    0.554228 0.007513 0.906457 0.000000
H139  H     H_    0.504886 0.981338 0.938871 0.000000
H140  H     H_    0.352330 0.991874 0.051951 0.000000
H141  H     H_    0.291179 0.054605 0.093888 0.000000
H142  H     H_    0.381914 0.141867 0.057585 0.000000
H143  H     H_    0.216137 0.164756 0.124649 0.000000
C144  C     C_3   0.510629 0.974445 0.182979 0.000000
C145  C     C_3   0.465527 0.026321 0.150278 0.000000
C146  C     C_3   0.412667 0.025844 0.162248 0.000000
C147  C     C_R   0.460936 0.076809 0.150884 0.000000
N27   N     N_R   0.453779 0.085054 0.193772 0.000000
C148  C     C_R   0.453166 0.137373 0.174738 0.000000
C149  C     C_R   0.442908 0.171946 0.197856 0.000000
C150  C     C_R   0.450269 0.221032 0.172667 0.000000
C151  C     C_R   0.467861 0.235152 0.124281 0.000000
C152  C     C_R   0.475696 0.201067 0.100310 0.000000
C153  C     C_R   0.464828 0.154721 0.125565 0.000000
N28   N     N_R   0.465270 0.119828 0.107822 0.000000
C154  C     C_2   0.473610 0.288446 0.097714 0.000000
O27   O     O_2   0.462524 0.320486 0.117809 0.000000
O28   O     O_2   0.488930 0.303502 0.050432 0.000000
H144  H     H_    0.519624 0.981567 0.212346 0.000000
H145  H     H_    0.502063 0.937570 0.199132 0.000000
H146  H     H_    0.545169 0.964564 0.158929 0.000000
H147  H     H_    0.473909 0.030942 0.112676 0.000000
H148  H     H_    0.400516 0.027613 0.130375 0.000000
H149  H     H_    0.416949 0.984503 0.189502 0.000000
H150  H     H_    0.382832 0.063863 0.169451 0.000000
H151  H     H_    0.428800 0.161810 0.234186 0.000000
H152  H     H_    0.442149 0.248095 0.191398 0.000000
H153  H     H_    0.489348 0.210371 0.062836 0.000000
H154  H     H_    0.491622 0.339182 0.032802 0.000000
C155  C     C_3   0.344588 0.245308 0.097062 0.000000
C156  C     C_3   0.337598 0.287531 0.044663 0.000000
C157  C     C_3   0.373167 0.317664 0.029880 0.000000
C158  C     C_R   0.342844 0.264758 0.008142 0.000000
N29   N     N_R   0.390371 0.221998 0.997943 0.000000
C159  C     C_R   0.377579 0.231063 0.953836 0.000000
C160  C     C_R   0.409916 0.201372 0.925863 0.000000
C161  C     C_R   0.390184 0.216704 0.881108 0.000000
C162  C     C_R   0.338273 0.259910 0.865916 0.000000
C163  C     C_R   0.305735 0.288450 0.895652 0.000000
C164  C     C_R   0.326342 0.273921 0.939357 0.000000
N30   N     N_R   0.301689 0.296179 0.973353 0.000000
C165  C     C_2   0.317806 0.274385 0.818699 0.000000
O29   O     O_2   0.347690 0.252912 0.790861 0.000000
O30   O     O_2   0.266244 0.312174 0.805421 0.000000
H155  H     H_    0.367191 0.201349 0.099090 0.000000
H156  H     H_    0.363146 0.254378 0.118771 0.000000
H157  H     H_    0.303999 0.251775 0.112079 0.000000
H158  H     H_    0.295459 0.319516 0.042385 0.000000
H159  H     H_    0.361268 0.352394 0.992790 0.000000
H160  H     H_    0.369211 0.336092 0.056207 0.000000
H161  H     H_    0.415053 0.288085 0.026610 0.000000
H162  H     H_    0.450135 0.167822 0.937869 0.000000
H163  H     H_    0.415524 0.193964 0.858496 0.000000
H164  H     H_    0.264268 0.318696 0.886608 0.000000
H165  H     H_    0.254008 0.324780 0.772880 0.000000
C166  C     C_3   0.583022 0.252372 0.904795 0.000000
C167  C     C_3   0.553049 0.231630 0.950577 0.000000
C168  C     C_3   0.494574 0.256845 0.937094 0.000000
C169  C     C_R   0.576589 0.167423 0.975112 0.000000
N31   N     N_R   0.543391 0.140840 0.003221 0.000000
C170  C     C_R   0.580775 0.089059 0.029258 0.000000
C171  C     C_R   0.571078 0.044278 0.060692 0.000000
C172  C     C_R   0.613888 0.992554 0.080217 0.000000
C173  C     C_R   0.664944 0.988493 0.074754 0.000000
C174  C     C_R   0.674240 0.035659 0.045714 0.000000
C175  C     C_R   0.631560 0.084107 0.019218 0.000000
N32   N     N_R   0.632815 0.131147 0.982356 0.000000
C176  C     C_2   0.708385 0.932607 0.084522 0.000000
O31   O     O_2   0.699467 0.897817 0.080385 0.000000
O32   O     O_2   0.758962 0.924589 0.084506 0.000000
H166  H     H_    0.577796 0.240545 0.876876 0.000000
H167  H     H_    0.566082 0.299698 0.890052 0.000000
H168  H     H_    0.625979 0.233925 0.913804 0.000000
H169  H     H_    0.554732 0.247853 0.976695 0.000000
H170  H     H_    0.470854 0.247781 0.970887 0.000000
H171  H     H_    0.478279 0.303986 0.916735 0.000000
H172  H     H_    0.491371 0.238153 0.913727 0.000000
H173  H     H_    0.531978 0.047648 0.065455 0.000000
H174  H     H_    0.607090 0.955053 0.099146 0.000000
H175  H     H_    0.714218 0.032152 0.038176 0.000000
H176  H     H_    0.788371 0.892419 0.079531 0.000000
C177  C     C_3   0.617341 0.735215 0.093525 0.000000
C178  C     C_3   0.597562 0.799280 0.065759 0.000000
C179  C     C_3   0.626628 0.823391 0.078623 0.000000
C180  C     C_R   0.585809 0.821486 0.012650 0.000000
N33   N     N_R   0.619639 0.798717 0.978517 0.000000
C181  C     C_R   0.582174 0.819645 0.944739 0.000000
C182  C     C_R   0.588381 0.802003 0.908216 0.000000
C183  C     C_R   0.547035 0.831221 0.874772 0.000000
C184  C     C_R   0.498979 0.875341 0.879921 0.000000
C185  C     C_R   0.489832 0.885818 0.922090 0.000000
C186  C     C_R   0.532188 0.856825 0.954392 0.000000
N34   N     N_R   0.531991 0.859018 0.997771 0.000000
C187  C     C_2   0.459143 0.910898 0.839910 0.000000
O33   O     O_2   0.469488 0.903168 0.802106 0.000000
O34   O     O_2   0.411881 0.953428 0.843765 0.000000
H177  H     H_    0.661089 0.710543 0.099588 0.000000
H178  H     H_    0.598641 0.728529 0.130027 0.000000
H179  H     H_    0.603637 0.719046 0.074544 0.000000
H180  H     H_    0.557606 0.817167 0.080946 0.000000
H181  H     H_    0.652769 0.837062 0.048408 0.000000
H182  H     H_    0.596389 0.860121 0.086803 0.000000
H183  H     H_    0.647719 0.792059 0.113790 0.000000
H184  H     H_    0.625042 0.767465 0.904547 0.000000
H185  H     H_    0.553426 0.820078 0.843846 0.000000
H186  H     H_    0.451778 0.917175 0.928602 0.000000
H187  H     H_    0.386576 0.977848 0.816640 0.000000
C188  C     C_3   0.490363 0.918007 0.123389 0.000000
C189  C     C_3   0.452646 0.896758 0.159884 0.000000
C190  C     C_3   0.393318 0.925404 0.149952 0.000000
C191  C     C_R   0.465917 0.844407 0.159003 0.000000
N35   N     N_R   0.468091 0.839517 0.114963 0.000000
C192  C     C_R   0.479372 0.783291 0.133383 0.000000
C193  C     C_R   0.497636 0.748493 0.108675 0.000000
C194  C     C_R   0.510047 0.691090 0.135273 0.000000
C195  C     C_R   0.503439 0.669098 0.185804 0.000000
C196  C     C_R   0.490335 0.703217 0.210931 0.000000
C197  C     C_R   0.479585 0.759520 0.184138 0.000000
N36   N     N_R   0.470227 0.797796 0.202239 0.000000
C198  C     C_2   0.514046 0.608850 0.212603 0.000000
O35   O     O_2   0.523591 0.579600 0.190129 0.000000
O36   O     O_2   0.511800 0.585979 0.261951 0.000000
H188  H     H_    0.501435 0.905388 0.092336 0.000000
H189  H     H_    0.472292 0.963760 0.108295 0.000000
H190  H     H_    0.528950 0.899362 0.142059 0.000000
H191  H     H_    0.460151 0.889494 0.196724 0.000000
H192  H     H_    0.376760 0.897555 0.178813 0.000000
H193  H     H_    0.370678 0.967338 0.151582 0.000000
H194  H     H_    0.386304 0.923300 0.117059 0.000000
H195  H     H_    0.508657 0.763265 0.070829 0.000000
H196  H     H_    0.527198 0.662817 0.116415 0.000000
H197  H     H_    0.491539 0.685793 0.250431 0.000000
H198  H     H_    0.518553 0.546314 0.279398 0.000000
C199  C     C_3   0.349328 0.035025 0.896082 0.000000
C200  C     C_3   0.342366 0.022986 0.950263 0.000000
C201  C     C_3   0.297397 0.072976 0.959071 0.000000
C202  C     C_R   0.337369 0.968533 0.979688 0.000000
N37   N     N_R   0.295108 0.958193 0.974121 0.000000
C203  C     C_R   0.320911 0.901230 0.989313 0.000000
C204  C     C_R   0.301866 0.870070 0.982484 0.000000
C205  C     C_R   0.335678 0.813622 0.991564 0.000000
C206  C     C_R   0.387508 0.789194 0.008466 0.000000
C207  C     C_R   0.406870 0.822027 0.014374 0.000000
C208  C     C_R   0.372411 0.878356 0.005613 0.000000
N38   N     N_R   0.384101 0.919439 0.003474 0.000000
C209  C     C_2   0.420378 0.727996 0.020924 0.000000
O37   O     O_2   0.411923 0.704439 0.000920 0.000000
O38   O     O_2   0.454271 0.696214 0.059347 0.000000
H199  H     H_    0.325846 0.020517 0.884974 0.000000
H200  H     H_    0.338294 0.080989 0.873132 0.000000
H201  H     H_    0.392643 0.011605 0.889724 0.000000
H202  H     H_    0.380235 0.016873 0.961612 0.000000
H203  H     H_    0.314951 0.093827 0.968867 0.000000
H204  H     H_    0.275995 0.105265 0.924836 0.000000
H205  H     H_    0.270241 0.059038 0.987930 0.000000
H206  H     H_    0.262292 0.891066 0.967167 0.000000
H207  H     H_    0.321331 0.788455 0.985690 0.000000
H208  H     H_    0.448758 0.805999 0.019768 0.000000
H209  H     H_    0.469675 0.655003 0.072103 0.000000
C210  C     C_3   0.552015 0.825023 0.354322 0.000000
C211  C     C_3   0.542143 0.859026 0.299406 0.000000
C212  C     C_3   0.565986 0.820639 0.271789 0.000000
C213  C     C_R   0.483763 0.889438 0.290679 0.000000
N39   N     N_R   0.455260 0.863643 0.285276 0.000000
C214  C     C_R   0.405246 0.907912 0.277603 0.000000
C215  C     C_R   0.361029 0.912296 0.261932 0.000000
C216  C     C_R   0.317527 0.965667 0.244388 0.000000
C217  C     C_R   0.318482 0.013285 0.243227 0.000000
C218  C     C_R   0.362370 0.008141 0.260265 0.000000
C219  C     C_R   0.404778 0.955535 0.277312 0.000000
N40   N     N_R   0.453707 0.947541 0.283240 0.000000
C220  C     C_2   0.274723 0.069606 0.221177 0.000000
O39   O     O_2   0.277961 0.112295 0.215258 0.000000
O40   O     O_2   0.229954 0.074048 0.208339 0.000000
H210  H     H_    0.555225 0.781677 0.365926 0.000000
H211  H     H_    0.589092 0.822043 0.364553 0.000000
H212  H     H_    0.517499 0.847655 0.373825 0.000000
H213  H     H_    0.558685 0.890580 0.285897 0.000000
H214  H     H_    0.550869 0.844135 0.233632 0.000000
H215  H     H_    0.609685 0.803630 0.270433 0.000000
H216  H     H_    0.555206 0.785061 0.290083 0.000000
H217  H     H_    0.361787 0.876848 0.258695 0.000000
H218  H     H_    0.284023 0.970533 0.228768 0.000000
H219  H     H_    0.366564 0.045245 0.254290 0.000000
H220  H     H_    0.199194 0.110295 0.194534 0.000000
C221  C     C_3   0.349598 0.008587 0.413924 0.000000
C222  C     C_3   0.340747 0.020042 0.361746 0.000000
C223  C     C_3   0.295697 0.009690 0.356820 0.000000
C224  C     C_R   0.337038 0.077589 0.327318 0.000000
N41   N     N_R   0.298120 0.128031 0.333445 0.000000
C225  C     C_R   0.328745 0.154832 0.325524 0.000000
C226  C     C_R   0.312878 0.204932 0.330096 0.000000
C227  C     C_R   0.352243 0.219779 0.330653 0.000000
C228  C     C_R   0.406513 0.182836 0.329290 0.000000
C229  C     C_R   0.421291 0.133462 0.322261 0.000000
C230  C     C_R   0.381012 0.123672 0.315184 0.000000
N42   N     N_R   0.386636 0.077774 0.309416 0.000000
C231  C     C_2   0.447628 0.195481 0.337238 0.000000
O41   O     O_2   0.434867 0.241826 0.337503 0.000000
O42   O     O_2   0.499192 0.155390 0.346178 0.000000
H221  H     H_    0.319848 0.044381 0.423750 0.000000
H222  H     H_    0.348713 0.967672 0.440317 0.000000
H223  H     H_    0.389621 0.005426 0.416370 0.000000
H224  H     H_    0.377062 0.987605 0.352734 0.000000
H225  H     H_    0.263786 0.049873 0.332835 0.000000
H226  H     H_    0.312134 0.977651 0.340983 0.000000
H227  H     H_    0.281852 0.988650 0.393051 0.000000
H228  H     H_    0.271105 0.230282 0.336069 0.000000
H229  H     H_    0.340232 0.258207 0.336110 0.000000
H230  H     H_    0.462816 0.102895 0.322956 0.000000
H231  H     H_    0.525928 0.163713 0.352042 0.000000
C232  C     C_3   0.572857 0.065873 0.205883 0.000000
C233  C     C_3   0.590168 0.049173 0.256443 0.000000
C234  C     C_3   0.561194 0.100792 0.269252 0.000000
C235  C     C_R   0.580488 0.000576 0.296137 0.000000
N43   N     N_R   0.530579 0.999059 0.304265 0.000000
C236  C     C_R   0.534768 0.963936 0.351980 0.000000
C237  C     C_R   0.495621 0.949725 0.380047 0.000000
C238  C     C_R   0.504131 0.919288 0.430003 0.000000
C239  C     C_R   0.549949 0.907395 0.451101 0.000000
C240  C     C_R   0.589258 0.922109 0.421464 0.000000
C241  C     C_R   0.582880 0.945809 0.371493 0.000000
N44   N     N_R   0.615377 0.964134 0.336546 0.000000
C242  C     C_2   0.555869 0.880567 0.504694 0.000000
O43   O     O_2   0.521452 0.867327 0.530560 0.000000
O44   O     O_2   0.599254 0.870275 0.525701 0.000000
H232  H     H_    0.551026 0.112930 0.188176 0.000000
H233  H     H_    0.606794 0.055303 0.181304 0.000000
H234  H     H_    0.549580 0.043596 0.208749 0.000000
H235  H     H_    0.633312 0.037109 0.255651 0.000000
H236  H     H_    0.565930 0.086821 0.308920 0.000000
H237  H     H_    0.577758 0.132043 0.247644 0.000000
H238  H     H_    0.518013 0.121347 0.261442 0.000000
H239  H     H_    0.459336 0.962032 0.363453 0.000000
H240  H     H_    0.473300 0.907793 0.452468 0.000000
H241  H     H_    0.621418 0.919792 0.436970 0.000000
H242  H     H_    0.602636 0.852316 0.561010 0.000000
C243  C     C_3   0.207529 0.167815 0.015632 0.000000
C244  C     C_3   0.219450 0.217689 0.987420 0.000000
C245  C     C_3   0.245468 0.214571 0.940042 0.000000
C246  C     C_R   0.168793 0.270226 0.977902 0.000000
N45   N     N_R   0.119872 0.277248 0.965456 0.000000
C247  C     C_R   0.094623 0.333650 0.944613 0.000000
C248  C     C_R   0.069339 0.362203 0.901029 0.000000
C249  C     C_R   0.050627 0.419544 0.881268 0.000000
C250  C     C_R   0.060457 0.444746 0.904952 0.000000
C251  C     C_R   0.100122 0.413029 0.939146 0.000000
C252  C     C_R   0.120589 0.357465 0.952793 0.000000
N46   N     N_R   0.169565 0.320460 0.970580 0.000000
C253  C     C_2   0.050457 0.501659 0.880863 0.000000
O45   O     O_2   0.067628 0.518557 0.900557 0.000000
O46   O     O_2   0.047562 0.523378 0.832473 0.000000
H243  H     H_    0.177374 0.170569 0.996588 0.000000
H244  H     H_    0.243306 0.128183 0.018957 0.000000
H245  H     H_    0.191718 0.169139 0.051083 0.000000
H246  H     H_    0.246883 0.218674 0.007560 0.000000
H247  H     H_    0.227481 0.257111 0.909411 0.000000
H248  H     H_    0.289653 0.196309 0.943671 0.000000
H249  H     H_    0.237976 0.185119 0.933272 0.000000
H250  H     H_    0.073990 0.340851 0.878389 0.000000
H251  H     H_    0.032189 0.442878 0.846056 0.000000
H252  H     H_    0.119033 0.428907 0.952526 0.000000
H253  H     H_    0.067661 0.544292 0.814163 0.000000
C254  C     C_3   0.091901 0.351043 0.059770 0.000000
C255  C     C_3   0.132927 0.337203 0.092814 0.000000
C256  C     C_3   0.179874 0.279974 0.100725 0.000000
C257  C     C_R   0.152102 0.381444 0.071817 0.000000
N47   N     N_R   0.188979 0.385893 0.033182 0.000000
C258  C     C_R   0.203935 0.420855 0.038840 0.000000
C259  C     C_R   0.247244 0.431466 0.018670 0.000000
C260  C     C_R   0.259122 0.464757 0.031549 0.000000
C261  C     C_R   0.228193 0.485869 0.066050 0.000000
C262  C     C_R   0.186974 0.471135 0.089085 0.000000
C263  C     C_R   0.175614 0.438658 0.075143 0.000000
N48   N     N_R   0.141251 0.415460 0.096668 0.000000
C264  C     C_2   0.240635 0.521212 0.079950 0.000000
O47   O     O_2   0.277521 0.533601 0.060203 0.000000
O48   O     O_2   0.211014 0.540636 0.114235 0.000000
H254  H     H_    0.107192 0.318182 0.045516 0.000000
H255  H     H_    0.053651 0.354888 0.079539 0.000000
H256  H     H_    0.086255 0.391572 0.029200 0.000000
H257  H     H_    0.113956 0.336758 0.128699 0.000000
H258  H     H_    0.167338 0.247209 0.127697 0.000000
H259  H     H_    0.193177 0.273878 0.066061 0.000000
H260  H     H_    0.213646 0.277856 0.115350 0.000000
H261  H     H_    0.274194 0.409890 0.996799 0.000000
H262  H     H_    0.293910 0.472339 0.015679 0.000000
H263  H     H_    0.165285 0.483902 0.117841 0.000000
H264  H     H_    0.219040 0.564126 0.123190 0.000000
C265  C     C_3   0.146410 0.460902 0.786953 0.000000
C266  C     C_3   0.181524 0.438218 0.830102 0.000000
C267  C     C_3   0.239498 0.426972 0.814882 0.000000
C268  C     C_R   0.165971 0.474277 0.858303 0.000000
N49   N     N_R   0.149264 0.535120 0.836325 0.000000
C269  C     C_R   0.177989 0.536865 0.865619 0.000000
C270  C     C_R   0.182019 0.582775 0.862438 0.000000
C271  C     C_R   0.227073 0.574121 0.881751 0.000000
C272  C     C_R   0.268449 0.519144 0.901083 0.000000
C273  C     C_R   0.259360 0.473188 0.909419 0.000000
C274  C     C_R   0.209080 0.483896 0.899422 0.000000
N50   N     N_R   0.196201 0.444181 0.901793 0.000000
C275  C     C_2   0.320937 0.509770 0.912884 0.000000
O49   O     O_2   0.328565 0.550423 0.905674 0.000000
O50   O     O_2   0.361000 0.456251 0.931598 0.000000
H265  H     H_    0.131578 0.507221 0.767874 0.000000
H266  H     H_    0.169461 0.440197 0.761301 0.000000
H267  H     H_    0.112132 0.450050 0.799753 0.000000
H268  H     H_    0.181633 0.396686 0.855828 0.000000
H269  H     H_    0.243378 0.466918 0.800694 0.000000
H270  H     H_    0.266864 0.399679 0.846843 0.000000
H271  H     H_    0.253775 0.407061 0.788229 0.000000
H272  H     H_    0.149699 0.623769 0.847418 0.000000
H273  H     H_    0.231213 0.610760 0.878020 0.000000
H274  H     H_    0.291480 0.430035 0.920957 0.000000
H275  H     H_    0.395486 0.450153 0.939458 0.000000
C276  C     C_3   0.822462 0.980349 0.072031 0.000000
C277  C     C_3   0.839346 0.023400 0.068056 0.000000
C278  C     C_3   0.871753 0.039880 0.024599 0.000000
C279  C     C_R   0.790539 0.073570 0.066953 0.000000
N51   N     N_R   0.747874 0.105189 0.032787 0.000000
C280  C     C_R   0.710505 0.138684 0.054748 0.000000
C281  C     C_R   0.661514 0.183293 0.035629 0.000000
C282  C     C_R   0.629216 0.214368 0.062852 0.000000
C283  C     C_R   0.644749 0.198316 0.109760 0.000000
C284  C     C_R   0.694243 0.152641 0.128537 0.000000
C285  C     C_R   0.728442 0.126075 0.099009 0.000000
N52   N     N_R   0.780741 0.086379 0.107275 0.000000
C286  C     C_2   0.610327 0.232291 0.137954 0.000000
O51   O     O_2   0.578361 0.282174 0.116824 0.000000
O52   O     O_2   0.614195 0.209020 0.187123 0.000000
H276  H     H_    0.805874 0.992379 0.037437 0.000000
H277  H     H_    0.855644 0.937423 0.083000 0.000000
H278  H     H_    0.790923 0.980123 0.100411 0.000000
H279  H     H_    0.862188 0.008081 0.100680 0.000000
H280  H     H_    0.842965 0.073008 0.995368 0.000000
H281  H     H_    0.890886 0.062567 0.028991 0.000000
H282  H     H_    0.901962 0.001503 0.018257 0.000000
H283  H     H_    0.650333 0.197140 0.998665 0.000000
H284  H     H_    0.591726 0.251136 0.047146 0.000000
H285  H     H_    0.707140 0.141041 0.163769 0.000000
H286  H     H_    0.590634 0.231511 0.205445 0.000000
C287  C     C_3   0.766380 0.209744 0.958184 0.000000
C288  C     C_3   0.776743 0.234237 0.904348 0.000000
C289  C     C_3   0.832179 0.232154 0.895509 0.000000
C290  C     C_R   0.765501 0.209448 0.876108 0.000000
N53   N     N_R   0.732665 0.180416 0.895971 0.000000
C291  C     C_R   0.711090 0.192173 0.854657 0.000000
C292  C     C_R   0.675049 0.175057 0.851588 0.000000
C293  C     C_R   0.652447 0.196580 0.806388 0.000000
C294  C     C_R   0.665611 0.235609 0.765406 0.000000
C295  C     C_R   0.704776 0.249601 0.768967 0.000000
C296  C     C_R   0.728777 0.225473 0.813609 0.000000
N54   N     N_R   0.767850 0.233174 0.824418 0.000000
C297  C     C_2   0.637490 0.262723 0.718542 0.000000
O53   O     O_2   0.607448 0.246149 0.713672 0.000000
O54   O     O_2   0.643778 0.306897 0.681032 0.000000
H287  H     H_    0.797863 0.165734 0.975768 0.000000
H288  H     H_    0.766271 0.237097 0.974410 0.000000
H289  H     H_    0.725812 0.212030 0.963007 0.000000
H290  H     H_    0.746556 0.279262 0.892110 0.000000
H291  H     H_    0.845656 0.235118 0.857956 0.000000
H292  H     H_    0.829421 0.269468 0.899074 0.000000
H293  H     H_    0.861368 0.192709 0.923173 0.000000
H294  H     H_    0.661645 0.149122 0.884154 0.000000
H295  H     H_    0.622213 0.185112 0.804073 0.000000
H296  H     H_    0.715354 0.279417 0.737805 0.000000
H297  H     H_    0.625174 0.324772 0.650255 0.000000
C298  C     C_3   0.679818 0.035051 0.918065 0.000000
C299  C     C_3   0.713094 0.981421 0.960363 0.000000
C300  C     C_3   0.719341 0.928843 0.956991 0.000000
C301  C     C_R   0.765574 0.981275 0.964343 0.000000
N55   N     N_R   0.817851 0.937535 0.962862 0.000000
C302  C     C_R   0.847077 0.966414 0.951491 0.000000
C303  C     C_R   0.901486 0.945885 0.947814 0.000000
C304  C     C_R   0.923189 0.983685 0.936154 0.000000
C305  C     C_R   0.890374 0.041483 0.920541 0.000000
C306  C     C_R   0.836222 0.060215 0.925053 0.000000
C307  C     C_R   0.816115 0.021536 0.945491 0.000000
N56   N     N_R   0.764909 0.032444 0.958169 0.000000
C308  C     C_2   0.910387 0.082872 0.909903 0.000000
O55   O     O_2   0.890156 0.129426 0.876446 0.000000
O56   O     O_2   0.941379 0.075183 0.942730 0.000000
H298  H     H_    0.706417 0.047489 0.887789 0.000000
H299  H     H_    0.649386 0.029971 0.905332 0.000000
H300  H     H_    0.656987 0.069239 0.931575 0.000000
H301  H     H_    0.688226 0.983755 0.992149 0.000000
H302  H     H_    0.721666 0.896527 0.994579 0.000000
H303  H     H_    0.684470 0.937111 0.938611 0.000000
H304  H     H_    0.755547 0.913405 0.936665 0.000000
H305  H     H_    0.926265 0.901251 0.956345 0.000000
H306  H     H_    0.965615 0.968993 0.937210 0.000000
H307  H     H_    0.812699 0.102441 0.921595 0.000000
H308  H     H_    0.947741 0.106369 0.939259 0.000000
C309  C     C_3   0.120563 0.117489 0.502028 0.000000
C310  C     C_3   0.108931 0.166229 0.452422 0.000000
C311  C     C_3   0.050990 0.204362 0.444568 0.000000
C312  C     C_R   0.140313 0.197947 0.444781 0.000000
N57   N     N_R   0.137920 0.218610 0.479149 0.000000
C313  C     C_R   0.188283 0.215174 0.474215 0.000000
C314  C     C_R   0.212108 0.223632 0.502980 0.000000
C315  C     C_R   0.266761 0.208110 0.498328 0.000000
C316  C     C_R   0.297455 0.180881 0.467352 0.000000
C317  C     C_R   0.272337 0.173996 0.437756 0.000000
C318  C     C_R   0.217224 0.195833 0.438834 0.000000
N58   N     N_R   0.186895 0.189182 0.415647 0.000000
C319  C     C_2   0.356497 0.156895 0.467813 0.000000
O57   O     O_2   0.378546 0.166021 0.491333 0.000000
O58   O     O_2   0.386690 0.123712 0.443089 0.000000
H309  H     H_    0.092832 0.132500 0.529405 0.000000
H310  H     H_    0.115405 0.083186 0.500076 0.000000
H311  H     H_    0.163171 0.099890 0.511863 0.000000
H312  H     H_    0.119047 0.148449 0.425722 0.000000
H313  H     H_    0.032193 0.185119 0.433811 0.000000
H314  H     H_    0.033478 0.211693 0.477843 0.000000
H315  H     H_    0.048420 0.243736 0.413992 0.000000
H316  H     H_    0.189185 0.240316 0.529488 0.000000
H317  H     H_    0.285679 0.213692 0.521776 0.000000
H318  H     H_    0.295415 0.147356 0.418027 0.000000
H319  H     H_    0.425550 0.107619 0.443759 0.000000
C320  C     C_3   0.115106 0.129446 0.254805 0.000000
C321  C     C_3   0.154799 0.130663 0.278102 0.000000
C322  C     C_3   0.161637 0.184001 0.247910 0.000000
C323  C     C_R   0.140170 0.122557 0.329662 0.000000
N59   N     N_R   0.174034 0.124594 0.354879 0.000000
C324  C     C_R   0.183388 0.078183 0.396755 0.000000
C325  C     C_R   0.216302 0.058900 0.434628 0.000000
C326  C     C_R   0.228735 0.004674 0.470457 0.000000
C327  C     C_R   0.212043 0.970240 0.464251 0.000000
C328  C     C_R   0.176090 0.993197 0.426979 0.000000
C329  C     C_R   0.156201 0.050353 0.397530 0.000000
N60   N     N_R   0.123055 0.080311 0.357951 0.000000
C330  C     C_2   0.233679 0.909180 0.495812 0.000000
O59   O     O_2   0.217706 0.879487 0.491068 0.000000
O60   O     O_2   0.270264 0.885917 0.530827 0.000000
H320  H     H_    0.078280 0.143933 0.274810 0.000000
H321  H     H_    0.110365 0.157196 0.215066 0.000000
H322  H     H_    0.129988 0.084975 0.260512 0.000000
H323  H     H_    0.193398 0.093299 0.280249 0.000000
H324  H     H_    0.194741 0.180377 0.264648 0.000000
H325  H     H_    0.173346 0.187267 0.210127 0.000000
H326  H     H_    0.123341 0.221790 0.245793 0.000000
H327  H     H_    0.233486 0.084251 0.435637 0.000000
H328  H     H_    0.256079 0.987756 0.499781 0.000000
H329  H     H_    0.167184 0.965853 0.418897 0.000000
H330  H     H_    0.281836 0.846485 0.553748 0.000000
C331  C     C_3   0.262983 0.309409 0.226708 0.000000
C332  C     C_3   0.226852 0.294713 0.210355 0.000000
C333  C     C_3   0.258348 0.234712 0.211931 0.000000
C334  C     C_R   0.176007 0.301141 0.240209 0.000000
N61   N     N_R   0.173032 0.259145 0.286335 0.000000
C335  C     C_R   0.119553 0.279774 0.291944 0.000000
C336  C     C_R   0.094377 0.251232 0.327505 0.000000
C337  C     C_R   0.041124 0.267899 0.322116 0.000000
C338  C     C_R   0.014444 0.312542 0.280118 0.000000
C339  C     C_R   0.041543 0.338707 0.243029 0.000000
C340  C     C_R   0.092452 0.326387 0.251895 0.000000
N62   N     N_R   0.125628 0.345325 0.219210 0.000000
C341  C     C_2   0.958798 0.328083 0.274303 0.000000
O61   O     O_2   0.935357 0.306731 0.309231 0.000000
O62   O     O_2   0.933402 0.365093 0.230820 0.000000
H331  H     H_    0.248885 0.313061 0.262141 0.000000
H332  H     H_    0.305417 0.276370 0.230345 0.000000
H333  H     H_    0.261683 0.350693 0.198639 0.000000
H334  H     H_    0.215233 0.324804 0.171665 0.000000
H335  H     H_    0.235294 0.226743 0.193438 0.000000
H336  H     H_    0.297804 0.228627 0.193756 0.000000
H337  H     H_    0.265415 0.203367 0.250027 0.000000
H338  H     H_    0.116678 0.214968 0.357594 0.000000
H339  H     H_    0.021720 0.243109 0.349090 0.000000
H340  H     H_    0.025875 0.362053 0.206840 0.000000
H341  H     H_    0.895700 0.377165 0.226925 0.000000
C342  C     C_3   0.777486 0.903872 0.224652 0.000000
C343  C     C_3   0.764863 0.965580 0.208905 0.000000
C344  C     C_3   0.709479 0.001627 0.187207 0.000000
C345  C     C_R   0.768522 0.982232 0.247561 0.000000
N63   N     N_R   0.733863 0.980445 0.287818 0.000000
C346  C     C_R   0.718397 0.031647 0.288037 0.000000
C347  C     C_R   0.675079 0.057371 0.312524 0.000000
C348  C     C_R   0.662008 0.111646 0.307211 0.000000
C349  C     C_R   0.690907 0.140391 0.275183 0.000000
C350  C     C_R   0.732366 0.114979 0.247640 0.000000
C351  C     C_R   0.746295 0.059426 0.255242 0.000000
N64   N     N_R   0.781159 0.027874 0.230072 0.000000
C352  C     C_2   0.675343 0.198817 0.268921 0.000000
O63   O     O_2   0.640787 0.219705 0.294963 0.000000
O64   O     O_2   0.699137 0.229737 0.234705 0.000000
H342  H     H_    0.742731 0.901173 0.217378 0.000000
H343  H     H_    0.808404 0.885571 0.200711 0.000000
H344  H     H_    0.789353 0.879670 0.263644 0.000000
H345  H     H_    0.791019 0.978338 0.178989 0.000000
H346  H     H_    0.696017 0.046722 0.180570 0.000000
H347  H     H_    0.708918 0.998532 0.152331 0.000000
H348  H     H_    0.683079 0.984892 0.214119 0.000000
H349  H     H_    0.651985 0.034880 0.335344 0.000000
H350  H     H_    0.628203 0.131693 0.327351 0.000000
H351  H     H_    0.751404 0.139291 0.219624 0.000000
H352  H     H_    0.689286 0.267353 0.232551 0.000000
C353  C     C_3   0.879066 0.752503 0.400318 0.000000
C354  C     C_3   0.823001 0.798116 0.393736 0.000000
C355  C     C_3   0.825592 0.853975 0.370054 0.000000
C356  C     C_R   0.787459 0.798649 0.364152 0.000000
N65   N     N_R   0.799509 0.756181 0.348155 0.000000
C357  C     C_R   0.757155 0.782103 0.318366 0.000000
C358  C     C_R   0.749368 0.762482 0.289356 0.000000
C359  C     C_R   0.706328 0.797561 0.257930 0.000000
C360  C     C_R   0.674529 0.853044 0.253305 0.000000
C361  C     C_R   0.680387 0.871227 0.285374 0.000000
C362  C     C_R   0.722007 0.834490 0.317637 0.000000
N66   N     N_R   0.739902 0.847424 0.345312 0.000000
C363  C     C_2   0.641760 0.894827 0.209992 0.000000
O65   O     O_2   0.635104 0.879760 0.181238 0.000000
O66   O     O_2   0.625360 0.950368 0.199007 0.000000
H353  H     H_    0.878414 0.715185 0.401904 0.000000
H354  H     H_    0.906401 0.764460 0.370841 0.000000
H355  H     H_    0.892159 0.744305 0.435884 0.000000
H356  H     H_    0.807645 0.790391 0.431040 0.000000
H357  H     H_    0.787370 0.891345 0.357525 0.000000
H358  H     H_    0.841232 0.856908 0.398502 0.000000
H359  H     H_    0.849036 0.855780 0.336077 0.000000
H360  H     H_    0.774151 0.719941 0.293014 0.000000
H361  H     H_    0.697852 0.781054 0.237242 0.000000
H362  H     H_    0.658684 0.914913 0.280620 0.000000
H363  H     H_    0.609710 0.980185 0.167900 0.000000
C364  C     C_3   0.690150 0.022136 0.425119 0.000000
C365  C     C_3   0.745271 0.982919 0.412595 0.000000
C366  C     C_3   0.789888 0.989622 0.423157 0.000000
C367  C     C_R   0.750867 0.924100 0.438480 0.000000
N67   N     N_R   0.773347 0.884995 0.485591 0.000000
C368  C     C_R   0.756584 0.845122 0.494375 0.000000
C369  C     C_R   0.769307 0.793694 0.533395 0.000000
C370  C     C_R   0.746837 0.759203 0.536855 0.000000
C371  C     C_R   0.713828 0.775392 0.499565 0.000000
C372  C     C_R   0.706606 0.824132 0.457394 0.000000
C373  C     C_R   0.726518 0.859478 0.456479 0.000000
N68   N     N_R   0.723756 0.908152 0.419057 0.000000
C374  C     C_2   0.684232 0.743142 0.505653 0.000000
O67   O     O_2   0.692646 0.698234 0.541349 0.000000
O68   O     O_2   0.644619 0.765391 0.473769 0.000000
H364  H     H_    0.682919 0.001574 0.464275 0.000000
H365  H     H_    0.686262 0.065570 0.414495 0.000000
H366  H     H_    0.657609 0.025193 0.407951 0.000000
H367  H     H_    0.749244 0.991951 0.373751 0.000000
H368  H     H_    0.823151 0.977376 0.397922 0.000000
H369  H     H_    0.777244 0.034373 0.417359 0.000000
H370  H     H_    0.802233 0.960073 0.460878 0.000000
H371  H     H_    0.793198 0.782510 0.562145 0.000000
H372  H     H_    0.754156 0.720410 0.569590 0.000000
H373  H     H_    0.684594 0.834992 0.426531 0.000000
H374  H     H_    0.622128 0.746613 0.479848 0.000000
C375  C     C_3   0.703733 0.646994 0.899724 0.000000
C376  C     C_3   0.759126 0.642523 0.901422 0.000000
C377  C     C_3   0.799587 0.600012 0.881549 0.000000
C378  C     C_R   0.757628 0.700805 0.872623 0.000000
N69   N     N_R   0.721917 0.743944 0.888486 0.000000
C379  C     C_R   0.709605 0.790732 0.846030 0.000000
C380  C     C_R   0.669071 0.844949 0.837964 0.000000
C381  C     C_R   0.661452 0.887405 0.791358 0.000000
C382  C     C_R   0.696533 0.876118 0.754286 0.000000
C383  C     C_R   0.738690 0.821823 0.763791 0.000000
C384  C     C_R   0.742138 0.777985 0.808757 0.000000
N70   N     N_R   0.775388 0.720667 0.823521 0.000000
C385  C     C_2   0.687867 0.921104 0.704478 0.000000
O69   O     O_2   0.652998 0.969826 0.696445 0.000000
O70   O     O_2   0.716714 0.908164 0.666967 0.000000
H375  H     H_    0.689599 0.668153 0.861283 0.000000
H376  H     H_    0.704934 0.603861 0.917396 0.000000
H377  H     H_    0.674840 0.672303 0.920273 0.000000
H378  H     H_    0.768504 0.626295 0.940464 0.000000
H379  H     H_    0.797399 0.621799 0.842283 0.000000
H380  H     H_    0.839920 0.586022 0.893761 0.000000
H381  H     H_    0.790956 0.562926 0.892956 0.000000
H382  H     H_    0.644873 0.855688 0.867366 0.000000
H383  H     H_    0.629124 0.929802 0.784820 0.000000
H384  H     H_    0.767053 0.814985 0.736000 0.000000
H385  H     H_    0.708796 0.936892 0.633746 0.000000
C386  C     C_3   0.828299 0.781528 0.866757 0.000000
C387  C     C_3   0.802110 0.827580 0.886069 0.000000
C388  C     C_3   0.748985 0.873952 0.862092 0.000000
C389  C     C_R   0.793308 0.805914 0.939321 0.000000
N71   N     N_R   0.757898 0.781475 0.963431 0.000000
C390  C     C_R   0.763287 0.772062 0.009190 0.000000
C391  C     C_R   0.739647 0.745122 0.047777 0.000000
C392  C     C_R   0.747887 0.739030 0.092702 0.000000
C393  C     C_R   0.769306 0.771061 0.095971 0.000000
C394  C     C_R   0.797158 0.795241 0.056338 0.000000
C395  C     C_R   0.796732 0.791235 0.013269 0.000000
N72   N     N_R   0.817193 0.813868 0.969050 0.000000
C396  C     C_2   0.752430 0.785197 0.138809 0.000000
O71   O     O_2   0.717954 0.772857 0.164860 0.000000
O72   O     O_2   0.771328 0.813957 0.148656 0.000000
H386  H     H_    0.805688 0.756771 0.878043 0.000000
H387  H     H_    0.831810 0.800266 0.826235 0.000000
H388  H     H_    0.868657 0.752368 0.883353 0.000000
H389  H     H_    0.831039 0.844536 0.879069 0.000000
H390  H     H_    0.739121 0.912027 0.867885 0.000000
H391  H     H_    0.749783 0.883896 0.822431 0.000000
H392  H     H_    0.717492 0.861334 0.882613 0.000000
H393  H     H_    0.712869 0.732250 0.042436 0.000000
H394  H     H_    0.729856 0.716187 0.123811 0.000000
H395  H     H_    0.811998 0.822590 0.056134 0.000000
H396  H     H_    0.757577 0.825879 0.175465 0.000000
C397  C     C_3   0.826571 0.666010 0.965998 0.000000
C398  C     C_3   0.834247 0.624381 0.017957 0.000000
C399  C     C_3   0.865536 0.632797 0.045426 0.000000
C400  C     C_R   0.783736 0.620219 0.041374 0.000000
N73   N     N_R   0.781598 0.572379 0.082363 0.000000
C401  C     C_R   0.729363 0.585560 0.080016 0.000000
C402  C     C_R   0.702829 0.557004 0.113320 0.000000
C403  C     C_R   0.651864 0.570727 0.101070 0.000000
C404  C     C_R   0.628427 0.614844 0.056273 0.000000
C405  C     C_R   0.652447 0.650378 0.027254 0.000000
C406  C     C_R   0.703014 0.634728 0.040651 0.000000
N74   N     N_R   0.734951 0.660129 0.016530 0.000000
C407  C     C_2   0.580243 0.621770 0.038458 0.000000
O73   O     O_2   0.563611 0.585700 0.060282 0.000000
O74   O     O_2   0.556953 0.665238 0.995751 0.000000
H397  H     H_    0.852492 0.687776 0.956097 0.000000
H398  H     H_    0.836402 0.640150 0.945317 0.000000
H399  H     H_    0.786437 0.696955 0.955055 0.000000
H400  H     H_    0.859270 0.586462 0.011933 0.000000
H401  H     H_    0.897083 0.644324 0.022369 0.000000
H402  H     H_    0.838712 0.666904 0.057773 0.000000
H403  H     H_    0.886306 0.592060 0.076136 0.000000
H404  H     H_    0.722662 0.525793 0.147517 0.000000
H405  H     H_    0.631365 0.545775 0.125811 0.000000
H406  H     H_    0.634113 0.686716 0.993633 0.000000
H407  H     H_    0.526982 0.668012 0.982598 0.000000
C408  C     C_3   0.653069 0.701845 0.229908 0.000000
C409  C     C_3   0.605483 0.688631 0.244596 0.000000
C410  C     C_3   0.617345 0.637814 0.234342 0.000000
C411  C     C_R   0.593956 0.673558 0.297821 0.000000
N75   N     N_R   0.631257 0.624083 0.333876 0.000000
C412  C     C_R   0.599549 0.620929 0.373687 0.000000
C413  C     C_R   0.614436 0.578985 0.419871 0.000000
C414  C     C_R   0.576527 0.580777 0.456446 0.000000
C415  C     C_R   0.523805 0.623348 0.446002 0.000000
C416  C     C_R   0.508953 0.665259 0.398575 0.000000
C417  C     C_R   0.547813 0.664916 0.362958 0.000000
N76   N     N_R   0.541820 0.701546 0.314861 0.000000
C418  C     C_2   0.484174 0.623620 0.485633 0.000000
O75   O     O_2   0.497146 0.586040 0.526840 0.000000
O76   O     O_2   0.433845 0.666282 0.477297 0.000000
H408  H     H_    0.684471 0.670147 0.258239 0.000000
H409  H     H_    0.668472 0.699204 0.194108 0.000000
H410  H     H_    0.640691 0.745546 0.226564 0.000000
H411  H     H_    0.570491 0.726724 0.223085 0.000000
H412  H     H_    0.591882 0.616890 0.258156 0.000000
H413  H     H_    0.609872 0.650595 0.195543 0.000000
H414  H     H_    0.659871 0.607059 0.242692 0.000000
H415  H     H_    0.654645 0.545349 0.427640 0.000000
H416  H     H_    0.588479 0.547877 0.493066 0.000000
H417  H     H_    0.467838 0.695328 0.389295 0.000000
H418  H     H_    0.409288 0.667677 0.504443 0.000000
C419  C     C_3   0.343437 0.806076 0.220671 0.000000
C420  C     C_3   0.333460 0.764359 0.268046 0.000000
C421  C     C_3   0.371722 0.703365 0.274643 0.000000
C422  C     C_R   0.340705 0.773429 0.309662 0.000000
N77   N     N_R   0.386665 0.777677 0.315815 0.000000
C423  C     C_R   0.372464 0.786618 0.357690 0.000000
C424  C     C_R   0.401230 0.795478 0.381814 0.000000
C425  C     C_R   0.383536 0.796403 0.427394 0.000000
C426  C     C_R   0.336904 0.790240 0.447404 0.000000
C427  C     C_R   0.303968 0.790331 0.419385 0.000000
C428  C     C_R   0.323340 0.786589 0.375261 0.000000
N78   N     N_R   0.300290 0.779580 0.345555 0.000000
C429  C     C_2   0.326456 0.776257 0.499917 0.000000
O77   O     O_2   0.357544 0.772099 0.525373 0.000000
O78   O     O_2   0.285766 0.762259 0.521147 0.000000
H419  H     H_    0.386168 0.793731 0.218480 0.000000
H420  H     H_    0.330479 0.805032 0.189310 0.000000
H421  H     H_    0.322308 0.849151 0.221035 0.000000
H422  H     H_    0.291369 0.772683 0.267354 0.000000
H423  H     H_    0.360158 0.673809 0.307670 0.000000
H424  H     H_    0.371000 0.696606 0.241733 0.000000
H425  H     H_    0.412651 0.694086 0.281666 0.000000
H426  H     H_    0.439552 0.795697 0.368375 0.000000
H427  H     H_    0.408775 0.797672 0.448632 0.000000
H428  H     H_    0.266117 0.788899 0.433170 0.000000
H429  H     H_    0.280338 0.750644 0.556144 0.000000
C430  C     C_3   0.978642 0.047907 0.125401 0.000000
C431  C     C_3   0.957710 0.022524 0.107023 0.000000
C432  C     C_3   0.989969 0.008340 0.066212 0.000000
C433  C     C_R   0.959080 0.972013 0.148395 0.000000
N79   N     N_R   0.005846 0.919320 0.167372 0.000000
C434  C     C_R   0.987049 0.895254 0.211386 0.000000
C435  C     C_R   0.013113 0.840174 0.245035 0.000000
C436  C     C_R   0.990169 0.825937 0.290399 0.000000
C437  C     C_R   0.944884 0.868312 0.300733 0.000000
C438  C     C_R   0.914239 0.919610 0.264313 0.000000
C439  C     C_R   0.935748 0.931894 0.219106 0.000000
N80   N     N_R   0.914179 0.979782 0.178442 0.000000
C440  C     C_2   0.929917 0.861315 0.350197 0.000000
O79   O     O_2   0.895307 0.902718 0.357805 0.000000
O80   O     O_2   0.950884 0.809469 0.387041 0.000000
H430  H     H_    0.018915 0.014475 0.141467 0.000000
H431  H     H_    0.979306 0.086985 0.095255 0.000000
H432  H     H_    0.951696 0.058354 0.154986 0.000000
H433  H     H_    0.915450 0.052502 0.096396 0.000000
H434  H     H_    0.979218 0.048270 0.032994 0.000000
H435  H     H_    0.033564 0.985509 0.074793 0.000000
H436  H     H_    0.976819 0.981093 0.061364 0.000000
H437  H     H_    0.050064 0.809077 0.237022 0.000000
H438  H     H_    0.009574 0.783133 0.318061 0.000000
H439  H     H_    0.875187 0.948644 0.271340 0.000000
H440  H     H_    0.934826 0.803724 0.418982 0.000000
C441  C     C_3   0.853774 0.171631 0.054662 0.000000
C442  C     C_3   0.826038 0.197846 0.091578 0.000000
C443  C     C_3   0.766177 0.217357 0.093951 0.000000
C444  C     C_R   0.851868 0.162778 0.140653 0.000000
N81   N     N_R   0.847673 0.112906 0.172414 0.000000
C445  C     C_R   0.855908 0.109001 0.216189 0.000000
C446  C     C_R   0.850894 0.070718 0.261338 0.000000
C447  C     C_R   0.831905 0.089875 0.298340 0.000000
C448  C     C_R   0.822221 0.144696 0.289569 0.000000
C449  C     C_R   0.841913 0.175693 0.247452 0.000000
C450  C     C_R   0.860245 0.155564 0.211178 0.000000
N82   N     N_R   0.863906 0.187677 0.163807 0.000000
C451  C     C_2   0.782626 0.173177 0.319695 0.000000
O81   O     O_2   0.762116 0.225189 0.304594 0.000000
O82   O     O_2   0.763594 0.143183 0.360776 0.000000
H441  H     H_    0.897788 0.155609 0.056878 0.000000
H442  H     H_    0.843746 0.136789 0.061607 0.000000
H443  H     H_    0.840369 0.204815 0.017271 0.000000
H444  H     H_    0.827281 0.237448 0.079831 0.000000
H445  H     H_    0.755285 0.194527 0.131436 0.000000
H446  H     H_    0.745845 0.263606 0.086503 0.000000
H447  H     H_    0.753308 0.212245 0.065206 0.000000
H448  H     H_    0.851584 0.031871 0.266073 0.000000
H449  H     H_    0.816982 0.065280 0.330999 0.000000
H450  H     H_    0.833456 0.219087 0.238997 0.000000
H451  H     H_    0.735064 0.162679 0.379004 0.000000
C452  C     C_3   0.185722 0.856407 0.984386 0.000000
C453  C     C_3   0.178537 0.844288 0.038777 0.000000
C454  C     C_3   0.232290 0.801886 0.065552 0.000000
C455  C     C_R   0.153763 0.897597 0.049320 0.000000
N83   N     N_R   0.141611 0.888244 0.099169 0.000000
C456  C     C_R   0.175645 0.903560 0.107516 0.000000
C457  C     C_R   0.199179 0.884685 0.150515 0.000000
C458  C     C_R   0.233523 0.904887 0.151168 0.000000
C459  C     C_R   0.244161 0.942861 0.108565 0.000000
C460  C     C_R   0.227582 0.954224 0.064610 0.000000
C461  C     C_R   0.195543 0.931367 0.065263 0.000000
N84   N     N_R   0.178529 0.934574 0.026090 0.000000
C462  C     C_2   0.253423 0.985174 0.111347 0.000000
O83   O     O_2   0.278056 0.972915 0.146257 0.000000
O84   O     O_2   0.220742 0.039994 0.084009 0.000000
H452  H     H_    0.228285 0.833921 0.975587 0.000000
H453  H     H_    0.164783 0.838244 0.974982 0.000000
H454  H     H_    0.170167 0.902941 0.961529 0.000000
H455  H     H_    0.154838 0.820220 0.054743 0.000000
H456  H     H_    0.224917 0.781531 0.104873 0.000000
H457  H     H_    0.254687 0.767226 0.052110 0.000000
H458  H     H_    0.256850 0.823342 0.062248 0.000000
H459  H     H_    0.193133 0.854272 0.182886 0.000000
H460  H     H_    0.244654 0.897826 0.185935 0.000000
H461  H     H_    0.231712 0.987715 0.032044 0.000000
H462  H     H_    0.211042 0.069571 0.095131 0.000000
C463  C     C_3   0.065899 0.095369 0.895082 0.000000
C464  C     C_3   0.083013 0.038788 0.894353 0.000000
C465  C     C_3   0.040036 0.038986 0.871316 0.000000
C466  C     C_R   0.133255 0.026030 0.867942 0.000000
N85   N     N_R   0.136258 0.031072 0.819881 0.000000
C467  C     C_R   0.190336 0.003841 0.816006 0.000000
C468  C     C_R   0.217192 0.992489 0.777172 0.000000
C469  C     C_R   0.271946 0.957314 0.781083 0.000000
C470  C     C_R   0.299108 0.935967 0.824129 0.000000
C471  C     C_R   0.272208 0.954147 0.861264 0.000000
C472  C     C_R   0.217198 0.985916 0.857461 0.000000
N86   N     N_R   0.182426 0.000353 0.891970 0.000000
C473  C     C_2   0.354514 0.890291 0.832199 0.000000
O85   O     O_2   0.379517 0.876408 0.798809 0.000000
O86   O     O_2   0.376581 0.860705 0.877467 0.000000
H463  H     H_    0.077965 0.123261 0.861439 0.000000
H464  H     H_    0.022622 0.115448 0.902489 0.000000
H465  H     H_    0.089146 0.086136 0.924402 0.000000
H466  H     H_    0.094176 0.005324 0.931646 0.000000
H467  H     H_    0.016956 0.018527 0.899068 0.000000
H468  H     H_    0.010340 0.083217 0.852690 0.000000
H469  H     H_    0.056499 0.016019 0.846784 0.000000
H470  H     H_    0.193883 0.007653 0.746692 0.000000
H471  H     H_    0.292414 0.944321 0.751420 0.000000
H472  H     H_    0.293550 0.941574 0.892899 0.000000
H473  H     H_    0.412231 0.828944 0.883392 0.000000
C474  C     C_3   0.027113 0.122131 0.989844 0.000000
C475  C     C_3   0.078796 0.104253 0.012917 0.000000
C476  C     C_3   0.098602 0.044403 0.048636 0.000000
C477  C     C_R   0.122121 0.113469 0.977647 0.000000
N87   N     N_R   0.163570 0.074584 0.959352 0.000000
C478  C     C_R   0.180855 0.109653 0.921381 0.000000
C479  C     C_R   0.213392 0.097541 0.883947 0.000000
C480  C     C_R   0.222991 0.140979 0.845686 0.000000
C481  C     C_R   0.200258 0.195608 0.845450 0.000000
C482  C     C_R   0.165851 0.207195 0.882946 0.000000
C483  C     C_R   0.156351 0.163460 0.920058 0.000000
N88   N     N_R   0.118231 0.167885 0.954895 0.000000
C484  C     C_2   0.208177 0.242703 0.803996 0.000000
O87   O     O_2   0.174845 0.292024 0.795943 0.000000
O88   O     O_2   0.251729 0.232677 0.774830 0.000000
H474  H     H_    0.028861 0.086157 0.984921 0.000000
H475  H     H_    0.992880 0.135108 0.014076 0.000000
H476  H     H_    0.020221 0.158302 0.954229 0.000000
H477  H     H_    0.067275 0.131465 0.032450 0.000000
H478  H     H_    0.136171 0.034152 0.063315 0.000000
H479  H     H_    0.070215 0.039888 0.078596 0.000000
H480  H     H_    0.102279 0.018549 0.029533 0.000000
H481  H     H_    0.232357 0.055213 0.884673 0.000000
H482  H     H_    0.248502 0.131346 0.816254 0.000000
H483  H     H_    0.145477 0.249713 0.882514 0.000000
H484  H     H_    0.281554 0.195059 0.782121 0.000000
C485  C     C_3   0.961501 0.209824 0.822042 0.000000
C486  C     C_3   0.980240 0.202832 0.774139 0.000000
C487  C     C_3   0.039729 0.171412 0.770109 0.000000
C488  C     C_R   0.957432 0.171911 0.767015 0.000000
N89   N     N_R   0.990346 0.117234 0.767281 0.000000
C489  C     C_R   0.952043 0.098366 0.777233 0.000000
C490  C     C_R   0.957768 0.044627 0.789583 0.000000
C491  C     C_R   0.912035 0.035902 0.799650 0.000000
C492  C     C_R   0.861457 0.079358 0.798410 0.000000
C493  C     C_R   0.856726 0.131002 0.790491 0.000000
C494  C     C_R   0.901516 0.140094 0.779188 0.000000
N90   N     N_R   0.901979 0.189058 0.770494 0.000000
C495  C     C_2   0.812358 0.072635 0.804486 0.000000
O89   O     O_2   0.795839 0.053057 0.845375 0.000000
O90   O     O_2   0.780710 0.096818 0.765408 0.000000
H485  H     H_    0.991214 0.213863 0.836325 0.000000
H486  H     H_    0.923215 0.249023 0.816053 0.000000
H487  H     H_    0.954311 0.173244 0.849105 0.000000
H488  H     H_    0.965606 0.243672 0.744479 0.000000
H489  H     H_    0.056133 0.126440 0.795054 0.000000
H490  H     H_    0.047077 0.176118 0.731925 0.000000
H491  H     H_    0.060376 0.189026 0.778888 0.000000
H492  H     H_    0.995768 0.009296 0.793151 0.000000
H493  H     H_    0.915848 0.994921 0.807873 0.000000
H494  H     H_    0.817935 0.165330 0.787652 0.000000
H495  H     H_    0.744729 0.099749 0.769857 0.000000
C496  C     C_3   0.945945 0.343715 0.702925 0.000000
C497  C     C_3   0.887382 0.365807 0.700699 0.000000
C498  C     C_3   0.870028 0.342545 0.675898 0.000000
C499  C     C_R   0.864908 0.358156 0.750059 0.000000
N91   N     N_R   0.831339 0.331091 0.769974 0.000000
C500  C     C_R   0.800341 0.358148 0.799244 0.000000
C501  C     C_R   0.750389 0.362489 0.816804 0.000000
C502  C     C_R   0.722464 0.396869 0.842595 0.000000
C503  C     C_R   0.744538 0.426697 0.849890 0.000000
C504  C     C_R   0.794033 0.423825 0.829649 0.000000
C505  C     C_R   0.819397 0.392090 0.802095 0.000000
N92   N     N_R   0.860826 0.393689 0.771217 0.000000
C506  C     C_2   0.714135 0.464012 0.876347 0.000000
O91   O     O_2   0.669680 0.468472 0.892787 0.000000
O92   O     O_2   0.735200 0.493559 0.882563 0.000000
H496  H     H_    0.956946 0.320102 0.741905 0.000000
H497  H     H_    0.966928 0.317471 0.681895 0.000000
H498  H     H_    0.954984 0.379863 0.686641 0.000000
H499  H     H_    0.870850 0.410882 0.677907 0.000000
H500  H     H_    0.826201 0.368367 0.672803 0.000000
H501  H     H_    0.884800 0.352320 0.637870 0.000000
H502  H     H_    0.882642 0.296208 0.697177 0.000000
H503  H     H_    0.732386 0.341275 0.809429 0.000000
H504  H     H_    0.683001 0.400476 0.856644 0.000000
H505  H     H_    0.810288 0.449434 0.831784 0.000000
H506  H     H_    0.715076 0.518253 0.899811 0.000000
C507  C     C_3   0.774062 0.209205 0.676416 0.000000
C508  C     C_3   0.826015 0.214262 0.671154 0.000000
C509  C     C_3   0.866440 0.187055 0.640589 0.000000
C510  C     C_R   0.815370 0.273261 0.655590 0.000000
N93   N     N_R   0.795917 0.311158 0.608385 0.000000
C511  C     C_R   0.755141 0.356100 0.616646 0.000000
C512  C     C_R   0.714674 0.402339 0.584813 0.000000
C513  C     C_R   0.673497 0.440636 0.602643 0.000000
C514  C     C_R   0.673511 0.432633 0.651400 0.000000
C515  C     C_R   0.714852 0.385507 0.683098 0.000000
C516  C     C_R   0.754142 0.347060 0.665126 0.000000
N94   N     N_R   0.794092 0.295650 0.690887 0.000000
C517  C     C_2   0.628216 0.472366 0.669998 0.000000
O93   O     O_2   0.593282 0.515667 0.641965 0.000000
O94   O     O_2   0.624051 0.460209 0.718390 0.000000
H507  H     H_    0.741097 0.251168 0.655872 0.000000
H508  H     H_    0.777313 0.176384 0.665399 0.000000
H509  H     H_    0.763630 0.196060 0.715364 0.000000
H510  H     H_    0.844299 0.192527 0.706125 0.000000
H511  H     H_    0.873321 0.218473 0.606423 0.000000
H512  H     H_    0.902337 0.159319 0.664286 0.000000
H513  H     H_    0.854125 0.162221 0.631762 0.000000
H514  H     H_    0.713060 0.407306 0.547799 0.000000
H515  H     H_    0.640749 0.476559 0.578155 0.000000
H516  H     H_    0.715065 0.377233 0.721339 0.000000
H517  H     H_    0.593169 0.485375 0.730753 0.000000
C518  C     C_3   0.883946 0.809598 0.118657 0.000000
C519  C     C_3   0.903383 0.827288 0.067303 0.000000
C520  C     C_3   0.942129 0.852117 0.057111 0.000000
C521  C     C_R   0.934603 0.776049 0.058008 0.000000
N95   N     N_R   0.980360 0.730483 0.086162 0.000000
C522  C     C_R   0.012841 0.715030 0.051764 0.000000
C523  C     C_R   0.065770 0.675567 0.060037 0.000000
C524  C     C_R   0.096435 0.666204 0.021548 0.000000
C525  C     C_R   0.072718 0.691073 0.976802 0.000000
C526  C     C_R   0.016352 0.726671 0.970239 0.000000
C527  C     C_R   0.987150 0.742593 0.007884 0.000000
N96   N     N_R   0.936077 0.784184 0.009818 0.000000
C528  C     C_2   0.111408 0.680106 0.938251 0.000000
O95   O     O_2   0.151429 0.687555 0.933410 0.000000
O96   O     O_2   0.108494 0.652798 0.914405 0.000000
H518  H     H_    0.916518 0.770876 0.140890 0.000000
H519  H     H_    0.865642 0.844253 0.131883 0.000000
H520  H     H_    0.855788 0.793721 0.120290 0.000000
H521  H     H_    0.869653 0.857831 0.041087 0.000000
H522  H     H_    0.967387 0.829511 0.089115 0.000000
H523  H     H_    0.969208 0.842961 0.027204 0.000000
H524  H     H_    0.922363 0.898743 0.045522 0.000000
H525  H     H_    0.084726 0.655771 0.095180 0.000000
H526  H     H_    0.139189 0.638135 0.026801 0.000000
H527  H     H_    0.996450 0.745069 0.936445 0.000000
H528  H     H_    0.081779 0.639095 0.924099 0.000000
C529  C     C_3   0.052901 0.811329 0.879903 0.000000
C530  C     C_3   0.001695 0.850367 0.896557 0.000000
C531  C     C_3   0.005792 0.903371 0.885166 0.000000
C532  C     C_R   0.954714 0.868388 0.869041 0.000000
N97   N     N_R   0.956373 0.890071 0.818592 0.000000
C533  C     C_R   0.902991 0.917059 0.807459 0.000000
C534  C     C_R   0.879112 0.938031 0.763826 0.000000
C535  C     C_R   0.824136 0.960485 0.760903 0.000000
C536  C     C_R   0.792291 0.970371 0.799293 0.000000
C537  C     C_R   0.816772 0.946018 0.844529 0.000000
C538  C     C_R   0.872162 0.913699 0.848267 0.000000
N98   N     N_R   0.903359 0.878156 0.888881 0.000000
C539  C     C_2   0.733637 0.004519 0.790557 0.000000
O97   O     O_2   0.714929 0.021796 0.750487 0.000000
O98   O     O_2   0.700156 0.017738 0.825915 0.000000
H529  H     H_    0.064960 0.834333 0.843410 0.000000
H530  H     H_    0.084898 0.792375 0.906760 0.000000
H531  H     H_    0.047753 0.778161 0.876482 0.000000
H532  H     H_    0.995781 0.831660 0.936248 0.000000
H533  H     H_    0.965718 0.939093 0.875410 0.000000
H534  H     H_    0.022782 0.897319 0.917490 0.000000
H535  H     H_    0.029932 0.913065 0.853002 0.000000
H536  H     H_    0.902282 0.931926 0.733339 0.000000
H537  H     H_    0.806176 0.973961 0.726804 0.000000
H538  H     H_    0.793442 0.951734 0.875655 0.000000
H539  H     H_    0.661866 0.040303 0.819297 0.000000
C540  C     C_3   0.104709 0.153242 0.090784 0.000000
C541  C     C_3   0.056464 0.197993 0.103506 0.000000
C542  C     C_3   0.073188 0.243223 0.093112 0.000000
C543  C     C_R   0.009149 0.221454 0.072151 0.000000
N99   N     N_R   0.013484 0.232597 0.022398 0.000000
C544  C     C_R   0.962320 0.249050 0.011446 0.000000
C545  C     C_R   0.941640 0.260092 0.968944 0.000000
C546  C     C_R   0.886430 0.287255 0.963024 0.000000
C547  C     C_R   0.853094 0.306387 0.997757 0.000000
C548  C     C_R   0.875160 0.291098 0.041440 0.000000
C549  C     C_R   0.928997 0.256232 0.049179 0.000000
N100  N     N_R   0.956470 0.235504 0.089778 0.000000
C550  C     C_2   0.794551 0.338701 0.990098 0.000000
O99   O     O_2   0.773956 0.341720 0.956927 0.000000
O100  O     O_2   0.763114 0.363505 0.020685 0.000000
H540  H     H_    0.112487 0.172496 0.051490 0.000000
H541  H     H_    0.139030 0.136557 0.114509 0.000000
H542  H     H_    0.097847 0.117762 0.096199 0.000000
H543  H     H_    0.046987 0.180500 0.142866 0.000000
H544  H     H_    0.051617 0.280399 0.059659 0.000000
H545  H     H_    0.065849 0.253447 0.125494 0.000000
H546  H     H_    0.116932 0.227617 0.085803 0.000000
H547  H     H_    0.966485 0.246953 0.941095 0.000000
H548  H     H_    0.870099 0.297475 0.929172 0.000000
H549  H     H_    0.850248 0.302898 0.070301 0.000000
H550  H     H_    0.724468 0.384142 0.015934 0.000000
C551  C     C_3   0.877362 0.418138 0.907937 0.000000
C552  C     C_3   0.938130 0.396496 0.909264 0.000000
C553  C     C_3   0.958643 0.369301 0.961212 0.000000
C554  C     C_R   0.967915 0.360208 0.879865 0.000000
N101  N     N_R   0.010874 0.305409 0.899841 0.000000
C555  C     C_R   0.023880 0.290797 0.861945 0.000000
C556  C     C_R   0.055299 0.238194 0.862667 0.000000
C557  C     C_R   0.079599 0.234670 0.820362 0.000000
C558  C     C_R   0.063354 0.282720 0.777951 0.000000
C559  C     C_R   0.018388 0.332162 0.777075 0.000000
C560  C     C_R   0.997884 0.334653 0.820755 0.000000
N102  N     N_R   0.958150 0.379274 0.829592 0.000000
C561  C     C_2   0.087329 0.275554 0.733925 0.000000
O101  O     O_2   0.132846 0.270884 0.723184 0.000000
O102  O     O_2   0.061212 0.267158 0.708587 0.000000
H551  H     H_    0.858185 0.419071 0.943383 0.000000
H552  H     H_    0.858374 0.462539 0.880032 0.000000
H553  H     H_    0.868962 0.390591 0.898136 0.000000
H554  H     H_    0.946763 0.433087 0.893957 0.000000
H555  H     H_    0.964220 0.400974 0.967400 0.000000
H556  H     H_    0.929614 0.357475 0.988035 0.000000
H557  H     H_    0.998330 0.332391 0.967653 0.000000
H558  H     H_    0.059602 0.200731 0.894227 0.000000
H559  H     H_    0.110247 0.194107 0.820098 0.000000
H560  H     H_    0.002312 0.368249 0.743606 0.000000
H561  H     H_    0.076916 0.258017 0.680990 0.000000
C562  C     C_3   0.047390 0.576451 0.069481 0.000000
C563  C     C_3   0.016735 0.590445 0.111579 0.000000
C564  C     C_3   0.962866 0.592675 0.118312 0.000000
C565  C     C_R   0.052388 0.557135 0.153245 0.000000
N103  N     N_R   0.084294 0.498349 0.168734 0.000000
C566  C     C_R   0.118638 0.489773 0.198967 0.000000
C567  C     C_R   0.162263 0.439515 0.220828 0.000000
C568  C     C_R   0.197468 0.438463 0.246575 0.000000
C569  C     C_R   0.186288 0.486894 0.252950 0.000000
C570  C     C_R   0.140500 0.537620 0.231335 0.000000
C571  C     C_R   0.108423 0.539718 0.201455 0.000000
N104  N     N_R   0.066210 0.585279 0.171554 0.000000
C572  C     C_2   0.224628 0.484013 0.281150 0.000000
O103  O     O_2   0.267902 0.441711 0.294047 0.000000
O104  O     O_2   0.213072 0.528078 0.292216 0.000000
H562  H     H_    0.046569 0.538271 0.071435 0.000000
H563  H     H_    0.029929 0.614475 0.035483 0.000000
H564  H     H_    0.089855 0.566453 0.072086 0.000000
H565  H     H_    0.005023 0.632481 0.107369 0.000000
H566  H     H_    0.948548 0.594440 0.154093 0.000000
H567  H     H_    0.936800 0.633955 0.089927 0.000000
H568  H     H_    0.963661 0.557624 0.113340 0.000000
H569  H     H_    0.170461 0.403157 0.214670 0.000000
H570  H     H_    0.233662 0.399456 0.261793 0.000000
H571  H     H_    0.130949 0.573539 0.238165 0.000000
H572  H     H_    0.239390 0.526081 0.309621 0.000000
C573  C     C_3   0.911596 0.462145 0.249434 0.000000
C574  C     C_3   0.947800 0.481074 0.210735 0.000000
C575  C     C_3   0.999226 0.465132 0.233867 0.000000
C576  C     C_R   0.956653 0.463450 0.169286 0.000000
N105  N     N_R   0.005633 0.452681 0.143569 0.000000
C577  C     C_R   0.989473 0.464246 0.099902 0.000000
C578  C     C_R   0.017349 0.470601 0.057052 0.000000
C579  C     C_R   0.993004 0.482712 0.016002 0.000000
C580  C     C_R   0.940295 0.492092 0.017786 0.000000
C581  C     C_R   0.911666 0.490162 0.060354 0.000000
C582  C     C_R   0.936510 0.477289 0.100345 0.000000
N106  N     N_R   0.913210 0.475168 0.143882 0.000000
C583  C     C_2   0.913916 0.505700 0.974604 0.000000
O105  O     O_2   0.938850 0.507839 0.936807 0.000000
O106  O     O_2   0.863849 0.510262 0.977975 0.000000
H573  H     H_    0.883327 0.457266 0.234204 0.000000
H574  H     H_    0.936127 0.421643 0.278767 0.000000
H575  H     H_    0.888185 0.495853 0.263528 0.000000
H576  H     H_    0.925264 0.527492 0.195210 0.000000
H577  H     H_    0.002384 0.504379 0.225188 0.000000
H578  H     H_    0.999593 0.442812 0.274204 0.000000
H579  H     H_    0.035491 0.438066 0.220224 0.000000
H580  H     H_    0.056784 0.467427 0.054196 0.000000
H581  H     H_    0.015331 0.486006 0.982400 0.000000
H582  H     H_    0.869867 0.499373 0.062718 0.000000
H583  H     H_    0.852308 0.502106 0.955802 0.000000
C584  C     C_3   0.712128 0.777679 0.696394 0.000000
C585  C     C_3   0.742255 0.787461 0.648597 0.000000
C586  C     C_3   0.703959 0.843809 0.610018 0.000000
C587  C     C_R   0.794133 0.787841 0.653108 0.000000
N107  N     N_R   0.816451 0.818863 0.612664 0.000000
C588  C     C_R   0.857601 0.811276 0.633298 0.000000
C589  C     C_R   0.893528 0.832321 0.608324 0.000000
C590  C     C_R   0.933642 0.821598 0.632376 0.000000
C591  C     C_R   0.938045 0.791398 0.680963 0.000000
C592  C     C_R   0.899438 0.773307 0.707984 0.000000
C593  C     C_R   0.861344 0.778989 0.682021 0.000000
N108  N     N_R   0.824879 0.757225 0.696614 0.000000
C594  C     C_2   0.989006 0.774819 0.698271 0.000000
O107  O     O_2   0.003770 0.811250 0.687463 0.000000
O108  O     O_2   0.025776 0.721120 0.709753 0.000000
H584  H     H_    0.686400 0.817811 0.701733 0.000000
H585  H     H_    0.685890 0.759000 0.696635 0.000000
H586  H     H_    0.741590 0.748774 0.726443 0.000000
H587  H     H_    0.752456 0.751584 0.638453 0.000000
H588  H     H_    0.679452 0.834340 0.594359 0.000000
H589  H     H_    0.675815 0.874969 0.625848 0.000000
H590  H     H_    0.725278 0.865482 0.580027 0.000000
H591  H     H_    0.892999 0.858628 0.571109 0.000000
H592  H     H_    0.961128 0.839213 0.612498 0.000000
H593  H     H_    0.898586 0.757901 0.747144 0.000000
H594  H     H_    0.062381 0.714821 0.706162 0.000000
C595  C     C_3   0.897957 0.707489 0.583955 0.000000
C596  C     C_3   0.944663 0.715964 0.589292 0.000000
C597  C     C_3   0.995376 0.662572 0.605409 0.000000
C598  C     C_R   0.953853 0.758392 0.544542 0.000000
N109  N     N_R   0.004711 0.746552 0.522357 0.000000
C599  C     C_R   0.991930 0.797371 0.483096 0.000000
C600  C     C_R   0.024443 0.813197 0.446377 0.000000
C601  C     C_R   0.003827 0.867094 0.408568 0.000000
C602  C     C_R   0.953188 0.908217 0.413043 0.000000
C603  C     C_R   0.921029 0.892300 0.451903 0.000000
C604  C     C_R   0.939369 0.836241 0.483736 0.000000
N110  N     N_R   0.912670 0.813734 0.522002 0.000000
C605  C     C_2   0.935786 0.968775 0.379797 0.000000
O109  O     O_2   0.959180 0.982336 0.341260 0.000000
O110  O     O_2   0.897333 0.009656 0.394188 0.000000
H595  H     H_    0.902674 0.663593 0.605729 0.000000
H596  H     H_    0.864035 0.730813 0.601926 0.000000
H597  H     H_    0.888294 0.723943 0.544801 0.000000
H598  H     H_    0.935923 0.730641 0.618180 0.000000
H599  H     H_    0.015768 0.669179 0.626410 0.000000
H600  H     H_    0.987625 0.625799 0.624293 0.000000
H601  H     H_    0.024003 0.652929 0.578518 0.000000
H602  H     H_    0.065705 0.785964 0.448857 0.000000
H603  H     H_    0.030188 0.878997 0.379360 0.000000
H604  H     H_    0.885348 0.923284 0.460366 0.000000
H605  H     H_    0.890713 0.049099 0.375793 0.000000
C606  C     C_3   0.874037 0.930311 0.655188 0.000000
C607  C     C_3   0.832126 0.941537 0.624576 0.000000
C608  C     C_3   0.778572 0.984027 0.636176 0.000000
C609  C     C_R   0.847284 0.958504 0.570596 0.000000
N111  N     N_R   0.842797 0.013819 0.548042 0.000000
C610  C     C_R   0.796459 0.040446 0.521402 0.000000
C611  C     C_R   0.758232 0.097272 0.505738 0.000000
C612  C     C_R   0.705797 0.110917 0.497967 0.000000
C613  C     C_R   0.690855 0.068370 0.508124 0.000000
C614  C     C_R   0.730158 0.012535 0.519773 0.000000
C615  C     C_R   0.782836 0.000574 0.522294 0.000000
N112  N     N_R   0.821015 0.947415 0.544870 0.000000
C616  C     C_2   0.633436 0.082144 0.509642 0.000000
O111  O     O_2   0.619614 0.043855 0.525498 0.000000
O112  O     O_2   0.595625 0.137064 0.494677 0.000000
H606  H     H_    0.866751 0.971193 0.654294 0.000000
H607  H     H_    0.870206 0.901293 0.692915 0.000000
H608  H     H_    0.914113 0.911267 0.640620 0.000000
H609  H     H_    0.825168 0.903794 0.638752 0.000000
H610  H     H_    0.746220 0.001435 0.610290 0.000000
H611  H     H_    0.766519 0.960971 0.673215 0.000000
H612  H     H_    0.782089 0.018666 0.638627 0.000000
H613  H     H_    0.765624 0.131087 0.503467 0.000000
H614  H     H_    0.675396 0.154550 0.489002 0.000000
H615  H     H_    0.720120 0.977270 0.532033 0.000000
H616  H     H_    0.557895 0.145905 0.496126 0.000000
C617  C     C_3   0.028023 0.592052 0.720429 0.000000
C618  C     C_3   0.976012 0.645287 0.715639 0.000000
C619  C     C_3   0.929968 0.640405 0.704065 0.000000
C620  C     C_R   0.967426 0.651489 0.762023 0.000000
N113  N     N_R   0.919072 0.661145 0.788015 0.000000
C621  C     C_R   0.935682 0.651257 0.830903 0.000000
C622  C     C_R   0.908297 0.644975 0.873174 0.000000
C623  C     C_R   0.937202 0.622793 0.914992 0.000000
C624  C     C_R   0.988940 0.615905 0.913191 0.000000
C625  C     C_R   0.015124 0.626475 0.869099 0.000000
C626  C     C_R   0.988874 0.638538 0.829946 0.000000
N114  N     N_R   0.010591 0.639934 0.786350 0.000000
C627  C     C_2   0.016326 0.589901 0.959425 0.000000
O113  O     O_2   0.989020 0.592322 0.995524 0.000000
O114  O     O_2   0.070048 0.556579 0.963940 0.000000
H617  H     H_    0.024015 0.554618 0.747077 0.000000
H618  H     H_    0.043082 0.585914 0.686500 0.000000
H619  H     H_    0.059569 0.592474 0.734551 0.000000
H620  H     H_    0.979557 0.683223 0.687926 0.000000
H621  H     H_    0.900529 0.680873 0.679619 0.000000
H622  H     H_    0.943680 0.610167 0.687310 0.000000
H623  H     H_    0.909566 0.625725 0.736857 0.000000
H624  H     H_    0.867868 0.651387 0.873434 0.000000
H625  H     H_    0.921658 0.606091 0.950317 0.000000
H626  H     H_    0.056702 0.618999 0.866317 0.000000
H627  H     H_    0.088194 0.536750 0.995160 0.000000
C628  C     C_3   0.056331 0.759754 0.602936 0.000000
C629  C     C_3   0.109837 0.711185 0.618166 0.000000
C630  C     C_3   0.147896 0.717466 0.640661 0.000000
C631  C     C_R   0.101729 0.660383 0.648077 0.000000
N115  N     N_R   0.121806 0.627175 0.696505 0.000000
C632  C     C_R   0.155779 0.577788 0.692413 0.000000
C633  C     C_R   0.204915 0.542071 0.714808 0.000000
C634  C     C_R   0.239127 0.497162 0.701251 0.000000
C635  C     C_R   0.220278 0.485532 0.670757 0.000000
C636  C     C_R   0.173379 0.527007 0.643771 0.000000
C637  C     C_R   0.146121 0.577002 0.650603 0.000000
N116  N     N_R   0.111534 0.630046 0.620278 0.000000
C638  C     C_2   0.249566 0.429276 0.668265 0.000000
O115  O     O_2   0.296192 0.398428 0.682585 0.000000
O116  O     O_2   0.223765 0.409456 0.654093 0.000000
H628  H     H_    0.051653 0.771179 0.564179 0.000000
H629  H     H_    0.026403 0.743726 0.621878 0.000000
H630  H     H_    0.052147 0.794736 0.610719 0.000000
H631  H     H_    0.129064 0.706410 0.583984 0.000000
H632  H     H_    0.182213 0.675463 0.659284 0.000000
H633  H     H_    0.165523 0.742712 0.609700 0.000000
H634  H     H_    0.127104 0.738177 0.666547 0.000000
H635  H     H_    0.217439 0.551444 0.739755 0.000000
H636  H     H_    0.278638 0.468569 0.718041 0.000000
H637  H     H_    0.157061 0.518597 0.621362 0.000000
H638  H     H_    0.242507 0.371347 0.654530 0.000000
C639  C     C_3   0.984187 0.743368 0.855118 0.000000
C640  C     C_3   0.990253 0.757874 0.801558 0.000000
C641  C     C_3   0.947103 0.816861 0.777923 0.000000
C642  C     C_R   0.047084 0.749321 0.786306 0.000000
N117  N     N_R   0.064911 0.788055 0.782083 0.000000
C643  C     C_R   0.118764 0.758278 0.778088 0.000000
C644  C     C_R   0.158652 0.770802 0.780651 0.000000
C645  C     C_R   0.211610 0.734719 0.774859 0.000000
C646  C     C_R   0.223792 0.687779 0.764946 0.000000
C647  C     C_R   0.182797 0.675595 0.762808 0.000000
C648  C     C_R   0.131165 0.709735 0.772401 0.000000
N118  N     N_R   0.087678 0.699826 0.779932 0.000000
C649  C     C_2   0.279995 0.650128 0.758357 0.000000
O117  O     O_2   0.316270 0.660626 0.760064 0.000000
O118  O     O_2   0.291845 0.603496 0.750789 0.000000
H639  H     H_    0.022832 0.710753 0.872687 0.000000
H640  H     H_    0.973163 0.780769 0.861874 0.000000
H641  H     H_    0.952324 0.729409 0.869970 0.000000
H642  H     H_    0.980084 0.732636 0.791720 0.000000
H643  H     H_    0.922827 0.820183 0.752383 0.000000
H644  H     H_    0.916301 0.826330 0.805595 0.000000
H645  H     H_    0.965865 0.845941 0.758982 0.000000
H646  H     H_    0.149233 0.806655 0.788483 0.000000
H647  H     H_    0.243252 0.744202 0.777385 0.000000
H648  H     H_    0.191027 0.638376 0.757014 0.000000
H649  H     H_    0.328900 0.578620 0.746704 0.000000
C650  C     C_3   0.200159 0.105465 0.588996 0.000000
C651  C     C_3   0.158811 0.085570 0.619316 0.000000
C652  C     C_3   0.192291 0.027585 0.657484 0.000000
C653  C     C_R   0.114540 0.129707 0.637601 0.000000
N119  N     N_R   0.114338 0.114983 0.688278 0.000000
C654  C     C_R   0.135085 0.148955 0.687198 0.000000
C655  C     C_R   0.164332 0.140241 0.723276 0.000000
C656  C     C_R   0.196441 0.168315 0.709794 0.000000
C657  C     C_R   0.193889 0.209719 0.662508 0.000000
C658  C     C_R   0.159130 0.222934 0.628247 0.000000
C659  C     C_R   0.132631 0.189946 0.640580 0.000000
N120  N     N_R   0.111243 0.184203 0.609023 0.000000
C660  C     C_2   0.227247 0.240129 0.648928 0.000000
O119  O     O_2   0.222125 0.278998 0.608562 0.000000
O120  O     O_2   0.264137 0.224861 0.680640 0.000000
H650  H     H_    0.219455 0.115434 0.609546 0.000000
H651  H     H_    0.232012 0.071652 0.577324 0.000000
H652  H     H_    0.180175 0.142479 0.556212 0.000000
H653  H     H_    0.140844 0.080193 0.595281 0.000000
H654  H     H_    0.167203 0.011212 0.686259 0.000000
H655  H     H_    0.214195 0.996892 0.639767 0.000000
H656  H     H_    0.222981 0.030388 0.672247 0.000000
H657  H     H_    0.165945 0.109745 0.760144 0.000000
H658  H     H_    0.222482 0.158900 0.737008 0.000000
H659  H     H_    0.154858 0.256263 0.592366 0.000000
H660  H     H_    0.286064 0.244916 0.671457 0.000000
C661  C     C_3   0.993925 0.173971 0.623039 0.000000
C662  C     C_3   0.959571 0.235542 0.612660 0.000000
C663  C     C_3   0.981530 0.252944 0.638549 0.000000
C664  C     C_R   0.954499 0.270629 0.559580 0.000000
N121  N     N_R   0.997311 0.276020 0.528332 0.000000
C665  C     C_R   0.971418 0.307232 0.484429 0.000000
C666  C     C_R   0.991529 0.324363 0.438189 0.000000
C667  C     C_R   0.960658 0.339301 0.399303 0.000000
C668  C     C_R   0.909486 0.340864 0.407433 0.000000
C669  C     C_R   0.891543 0.324751 0.453726 0.000000
C670  C     C_R   0.920216 0.313513 0.489775 0.000000
N122  N     N_R   0.906354 0.293795 0.535835 0.000000
C671  C     C_2   0.871107 0.359383 0.370655 0.000000
O121  O     O_2   0.869358 0.395733 0.329941 0.000000
O122  O     O_2   0.832149 0.341894 0.384518 0.000000
H661  H     H_    0.026873 0.169662 0.596083 0.000000
H662  H     H_    0.007574 0.151823 0.661740 0.000000
H663  H     H_    0.970790 0.155615 0.618352 0.000000
H664  H     H_    0.919494 0.243330 0.628409 0.000000
H665  H     H_    0.964717 0.299177 0.620134 0.000000
H666  H     H_    0.966779 0.239990 0.675935 0.000000
H667  H     H_    0.025278 0.232056 0.639257 0.000000
H668  H     H_    0.032156 0.320049 0.432676 0.000000
H669  H     H_    0.977173 0.348876 0.362782 0.000000
H670  H     H_    0.858558 0.314288 0.463003 0.000000
H671  H     H_    0.803311 0.356778 0.362759 0.000000
C672  C     C_3   0.054574 0.364499 0.619912 0.000000
C673  C     C_3   0.031124 0.352524 0.588323 0.000000
C674  C     C_3   0.973302 0.392085 0.573950 0.000000
C675  C     C_R   0.058231 0.364621 0.543307 0.000000
N123  N     N_R   0.066061 0.413298 0.522271 0.000000
C676  C     C_R   0.101446 0.401482 0.486294 0.000000
C677  C     C_R   0.139000 0.421275 0.461366 0.000000
C678  C     C_R   0.169118 0.403594 0.424936 0.000000
C679  C     C_R   0.160030 0.368062 0.412622 0.000000
C680  C     C_R   0.126434 0.344257 0.441269 0.000000
C681  C     C_R   0.104987 0.354997 0.482236 0.000000
N124  N     N_R   0.081184 0.327519 0.520206 0.000000
C682  C     C_2   0.188979 0.351538 0.372367 0.000000
O123  O     O_2   0.230871 0.355511 0.357523 0.000000
O124  O     O_2   0.170351 0.329886 0.352868 0.000000
H672  H     H_    0.097226 0.332615 0.628444 0.000000
H673  H     H_    0.055148 0.405895 0.601561 0.000000
H674  H     H_    0.031393 0.364010 0.653270 0.000000
H675  H     H_    0.040438 0.307288 0.603757 0.000000
H676  H     H_    0.960078 0.378523 0.551893 0.000000
H677  H     H_    0.947814 0.392215 0.606352 0.000000
H678  H     H_    0.970603 0.434880 0.549672 0.000000
H679  H     H_    0.149488 0.445085 0.472374 0.000000
H680  H     H_    0.198444 0.419301 0.405271 0.000000
H681  H     H_    0.117013 0.318620 0.431334 0.000000
H682  H     H_    0.189400 0.318908 0.326332 0.000000
C683  C     C_3   0.014355 0.555404 0.300654 0.000000
C684  C     C_3   0.971488 0.593200 0.261122 0.000000
C685  C     C_3   0.929720 0.574343 0.266144 0.000000
C686  C     C_R   0.948211 0.653475 0.253355 0.000000
N125  N     N_R   0.912029 0.680706 0.283676 0.000000
C687  C     C_R   0.915640 0.730620 0.262435 0.000000
C688  C     C_R   0.892516 0.774653 0.276670 0.000000
C689  C     C_R   0.898840 0.822848 0.247792 0.000000
C690  C     C_R   0.928961 0.825384 0.206028 0.000000
C691  C     C_R   0.960431 0.777692 0.197851 0.000000
C692  C     C_R   0.950454 0.732236 0.224574 0.000000
N126  N     N_R   0.969920 0.686079 0.215387 0.000000
C693  C     C_2   0.917987 0.879186 0.165806 0.000000
O125  O     O_2   0.875653 0.919674 0.164775 0.000000
O126  O     O_2   0.953335 0.885094 0.129618 0.000000
H683  H     H_    0.996405 0.556758 0.335797 0.000000
H684  H     H_    0.034828 0.511051 0.302672 0.000000
H685  H     H_    0.044717 0.571955 0.291500 0.000000
H686  H     H_    0.991998 0.591032 0.226997 0.000000
H687  H     H_    0.921239 0.582048 0.229545 0.000000
H688  H     H_    0.946089 0.528157 0.286993 0.000000
H689  H     H_    0.892615 0.599979 0.280510 0.000000
H690  H     H_    0.870175 0.772830 0.308583 0.000000
H691  H     H_    0.876424 0.859908 0.256033 0.000000
H692  H     H_    0.982076 0.779712 0.164874 0.000000
H693  H     H_    0.943221 0.920752 0.101247 0.000000
C694  C     C_3   0.671386 0.709521 0.344590 0.000000
C695  C     C_3   0.717974 0.674977 0.379377 0.000000
C696  C     C_3   0.696933 0.649923 0.429878 0.000000
C697  C     C_R   0.765339 0.632584 0.362196 0.000000
N127  N     N_R   0.763933 0.589100 0.355535 0.000000
C698  C     C_R   0.816552 0.553920 0.356102 0.000000
C699  C     C_R   0.839924 0.502822 0.352101 0.000000
C700  C     C_R   0.895131 0.472904 0.357287 0.000000
C701  C     C_R   0.924241 0.488127 0.374665 0.000000
C702  C     C_R   0.900043 0.541547 0.374512 0.000000
C703  C     C_R   0.847131 0.575184 0.361175 0.000000
N128  N     N_R   0.817167 0.628233 0.358736 0.000000
C704  C     C_2   0.982495 0.454825 0.382850 0.000000
O127  O     O_2   0.009586 0.422338 0.362638 0.000000
O128  O     O_2   0.007093 0.466235 0.407211 0.000000
H694  H     H_    0.638777 0.696384 0.359870 0.000000
H695  H     H_    0.655997 0.754117 0.339893 0.000000
H696  H     H_    0.685208 0.704928 0.309589 0.000000
H697  H     H_    0.730960 0.703643 0.382222 0.000000
H698  H     H_    0.729037 0.625332 0.457741 0.000000
H699  H     H_    0.665169 0.685847 0.438854 0.000000
H700  H     H_    0.677731 0.624394 0.430602 0.000000
H701  H     H_    0.816936 0.486521 0.344704 0.000000
H702  H     H_    0.915695 0.438725 0.346273 0.000000
H703  H     H_    0.923579 0.557106 0.380627 0.000000
H704  H     H_    0.045354 0.454126 0.403572 0.000000
C705  C     C_3   0.824116 0.660760 0.469575 0.000000
C706  C     C_3   0.866060 0.599177 0.484542 0.000000
C707  C     C_3   0.840679 0.567384 0.479592 0.000000
C708  C     C_R   0.916045 0.589500 0.454810 0.000000
N129  N     N_R   0.915374 0.624249 0.406014 0.000000
C709  C     C_R   0.968067 0.609119 0.395957 0.000000
C710  C     C_R   0.989604 0.644099 0.361839 0.000000
C711  C     C_R   0.043933 0.627186 0.363984 0.000000
C712  C     C_R   0.076736 0.575161 0.398336 0.000000
C713  C     C_R   0.052672 0.545545 0.436462 0.000000
C714  C     C_R   0.998530 0.563986 0.435082 0.000000
N130  N     N_R   0.967752 0.550420 0.474039 0.000000
C715  C     C_2   0.134597 0.558551 0.398144 0.000000
O129  O     O_2   0.156925 0.574412 0.359584 0.000000
O130  O     O_2   0.163304 0.527686 0.439929 0.000000
H705  H     H_    0.811916 0.679159 0.431104 0.000000
H706  H     H_    0.788150 0.661616 0.492689 0.000000
H707  H     H_    0.838753 0.685989 0.476295 0.000000
H708  H     H_    0.876724 0.584640 0.522426 0.000000
H709  H     H_    0.872899 0.525360 0.481338 0.000000
H710  H     H_    0.809614 0.565093 0.507584 0.000000
H711  H     H_    0.819853 0.591240 0.444702 0.000000
H712  H     H_    0.964354 0.687826 0.340810 0.000000
H713  H     H_    0.059656 0.657912 0.343724 0.000000
H714  H     H_    0.073763 0.513007 0.469146 0.000000
H715  H     H_    0.201446 0.517048 0.438600 0.000000
C716  C     C_3   0.912304 0.208044 0.451703 0.000000
C717  C     C_3   0.920404 0.167501 0.504795 0.000000
C718  C     C_3   0.964946 0.161601 0.528277 0.000000
C719  C     C_R   0.870147 0.176203 0.533094 0.000000
N131  N     N_R   0.832982 0.226607 0.539268 0.000000
C720  C     C_R   0.790286 0.215375 0.556727 0.000000
C721  C     C_R   0.740748 0.251565 0.567743 0.000000
C722  C     C_R   0.701725 0.232194 0.585688 0.000000
C723  C     C_R   0.713434 0.176752 0.593759 0.000000
C724  C     C_R   0.764472 0.140664 0.583342 0.000000
C725  C     C_R   0.801930 0.161290 0.563290 0.000000
N132  N     N_R   0.853324 0.133727 0.549833 0.000000
C726  C     C_2   0.671409 0.156911 0.612700 0.000000
O131  O     O_2   0.627495 0.187623 0.624014 0.000000
O132  O     O_2   0.680743 0.105126 0.617039 0.000000
H716  H     H_    0.937321 0.230557 0.442180 0.000000
H717  H     H_    0.927571 0.182700 0.429372 0.000000
H718  H     H_    0.868895 0.237303 0.443972 0.000000
H719  H     H_    0.934458 0.125866 0.505169 0.000000
H720  H     H_    0.000800 0.149294 0.506361 0.000000
H721  H     H_    0.955218 0.201251 0.530352 0.000000
H722  H     H_    0.973886 0.125936 0.564239 0.000000
H723  H     H_    0.732193 0.294280 0.562036 0.000000
H724  H     H_    0.662304 0.260628 0.593816 0.000000
H725  H     H_    0.774628 0.098251 0.588734 0.000000
H726  H     H_    0.652863 0.092386 0.629166 0.000000
C727  C     C_3   0.030063 0.515033 0.661394 0.000000
C728  C     C_3   0.036406 0.461574 0.661536 0.000000
C729  C     C_3   0.072765 0.412194 0.703855 0.000000
C730  C     C_R   0.981773 0.466541 0.655745 0.000000
N133  N     N_R   0.940410 0.465079 0.691465 0.000000
C731  C     C_R   0.898034 0.490921 0.662081 0.000000
C732  C     C_R   0.845803 0.505955 0.677222 0.000000
C733  C     C_R   0.807053 0.521380 0.646764 0.000000
C734  C     C_R   0.823792 0.510214 0.605672 0.000000
C735  C     C_R   0.876474 0.498424 0.589098 0.000000
C736  C     C_R   0.912563 0.495766 0.615472 0.000000
N134  N     N_R   0.966170 0.482413 0.608308 0.000000
C737  C     C_2   0.789113 0.497757 0.588141 0.000000
O133  O     O_2   0.808884 0.457137 0.576682 0.000000
O134  O     O_2   0.735154 0.527878 0.588807 0.000000
H727  H     H_    0.987131 0.545035 0.654134 0.000000
H728  H     H_    0.043487 0.505311 0.697207 0.000000
H729  H     H_    0.055926 0.531458 0.632805 0.000000
H730  H     H_    0.059687 0.459305 0.628216 0.000000
H731  H     H_    0.084281 0.373177 0.699245 0.000000
H732  H     H_    0.110442 0.416141 0.701468 0.000000
H733  H     H_    0.054116 0.411240 0.739705 0.000000
H734  H     H_    0.836121 0.496246 0.714246 0.000000
H735  H     H_    0.767129 0.527492 0.661121 0.000000
H736  H     H_    0.889068 0.487550 0.558355 0.000000
H737  H     H_    0.711858 0.519586 0.577579 0.000000
C738  C     C_3   0.991496 0.661297 0.461289 0.000000
C739  C     C_3   0.990599 0.635883 0.515470 0.000000
C740  C     C_3   0.947985 0.615755 0.539390 0.000000
C741  C     C_R   0.044456 0.589216 0.532868 0.000000
N135  N     N_R   0.059804 0.533360 0.539809 0.000000
C742  C     C_R   0.113937 0.510633 0.542942 0.000000
C743  C     C_R   0.151002 0.455078 0.552143 0.000000
C744  C     C_R   0.205181 0.442313 0.549727 0.000000
C745  C     C_R   0.221293 0.484455 0.539848 0.000000
C746  C     C_R   0.182940 0.539835 0.532927 0.000000
C747  C     C_R   0.129547 0.551312 0.535850 0.000000
N136  N     N_R   0.086361 0.600931 0.532627 0.000000
C748  C     C_2   0.278816 0.470149 0.537914 0.000000
O135  O     O_2   0.312923 0.421524 0.544398 0.000000
O136  O     O_2   0.294217 0.510636 0.529220 0.000000
H738  H     H_    0.960149 0.659062 0.448270 0.000000
H739  H     H_    0.983718 0.706135 0.449053 0.000000
H740  H     H_    0.032365 0.639167 0.449010 0.000000
H741  H     H_    0.980816 0.672825 0.521933 0.000000
H742  H     H_    0.950696 0.600708 0.579149 0.000000
H743  H     H_    0.907513 0.649994 0.525281 0.000000
H744  H     H_    0.955970 0.577486 0.536177 0.000000
H745  H     H_    0.138584 0.422380 0.560258 0.000000
H746  H     H_    0.234844 0.398885 0.555932 0.000000
H747  H     H_    0.194223 0.572746 0.526578 0.000000
H748  H     H_    0.332079 0.501159 0.528133 0.000000

loop_
_geom_bond_atom_site_label_1
_geom_bond_atom_site_label_2
_geom_bond_distance
_geom_bond_site_symmetry_2
_ccdc_geom_bond_type
Zn1   N1    2.244 .      S
Zn1   N70   2.272 .      S
Zn1   N108  2.221 .      S
Zn1   N113  2.189 .      S
Zn2   N4    2.109 .      S
Zn2   N17   2.193 .      S
Zn2   N79   2.223 .      S
Zn2   N83   2.261 .      S
Zn3   N5    2.122 1_545  S
Zn3   N85   2.253 .      S
Zn3   N89   2.294 1_455  S
Zn3   N119  2.281 .      S
Zn4   N9    2.120 .      S
Zn4   N21   2.191 .      S
Zn4   N82   2.118 .      S
Zn4   N100  2.127 .      S
Zn5   N8    2.276 1_455  S
Zn5   N10   2.181 .      S
Zn5   N12   2.226 1_545  S
Zn5   N60   2.169 .      S
Zn6   N13   2.268 .      S
Zn6   N16   2.222 .      S
Zn6   N75   2.262 .      S
Zn6   N127  2.044 .      S
Zn7   N11   2.182 .      S
Zn7   N18   2.149 .      S
Zn7   N19   2.195 .      S
Zn7   N78   2.269 .      S
Zn8   N15   2.201 .      S
Zn8   N22   2.327 .      S
Zn8   N73   2.250 .      S
Zn8   N106  2.242 .      S
Zn9   N3    2.186 .      S
Zn9   N95   2.172 1_455  S
Zn9   N104  2.248 .      S
Zn9   N126  2.127 1_455  S
Zn10  N6    2.181 .      S
Zn10  N24   2.112 1_455  S
Zn10  N97   2.149 1_455  S
Zn10  N117  2.176 .      S
Zn11  N26   2.238 .      S
Zn11  N28   2.164 .      S
Zn11  N29   2.238 1_554  S
Zn11  N31   2.195 .      S
Zn12  N25   2.336 .      S
Zn12  N34   2.214 1_554  S
Zn12  N35   2.307 .      S
Zn12  N38   2.262 .      S
Zn13  N27   2.220 .      S
Zn13  N40   2.230 1_545  S
Zn13  N42   2.242 .      S
Zn13  N43   2.130 1_545  S
Zn14  N30   2.218 .      S
Zn14  N46   2.138 .      S
Zn14  N47   2.227 1_556  S
Zn14  N50   2.275 .      S
Zn15  N32   2.228 .      S
Zn15  N51   2.206 1_556  S
Zn15  N53   2.257 .      S
Zn15  N56   2.204 .      S
Zn16  N41   2.227 .      S
Zn16  N58   2.215 .      S
Zn16  N59   2.075 .      S
Zn16  N61   2.201 .      S
Zn17  N44   2.164 .      S
Zn17  N63   2.144 .      S
Zn17  N66   2.072 .      S
Zn17  N68   2.165 .      S
Zn18  N33   2.268 .      S
Zn18  N69   2.191 .      S
Zn18  N71   2.167 .      S
Zn18  N74   2.165 1_556  S
Zn19  N36   2.202 .      S
Zn19  N39   2.280 .      S
Zn19  N76   2.303 .      S
Zn19  N77   2.294 .      S
Zn20  N52   2.183 .      S
Zn20  N64   2.128 .      S
Zn20  N80   2.224 1_545  S
Zn20  N81   2.088 .      S
Zn21  N37   2.287 .      S
Zn21  N84   2.184 1_556  S
Zn21  N86   2.209 1_565  S
Zn21  N87   2.121 1_565  S
Zn22  N54   2.274 .      S
Zn22  N90   2.201 .      S
Zn22  N91   2.180 .      S
Zn22  N94   2.183 .      S
Zn23  N55   2.210 .      S
Zn23  N72   2.145 .      S
Zn23  N96   2.207 1_556  S
Zn23  N98   2.112 .      S
Zn24  N45   2.173 .      S
Zn24  N88   2.082 .      S
Zn24  N99   2.129 1_556  S
Zn24  N101  2.179 .      S
Zn25  N48   2.141 .      S
Zn25  N62   2.192 .      S
Zn25  N103  2.171 .      S
Zn25  N105  2.186 .      S
Zn26  N67   2.231 .      S
Zn26  N107  2.106 .      S
Zn26  N110  2.256 .      S
Zn26  N112  2.281 .      S
Zn27  N49   2.373 .      S
Zn27  N114  2.168 .      S
Zn27  N115  2.300 .      S
Zn27  N118  2.215 .      S
Zn28  N57   2.225 .      S
Zn28  N120  2.195 .      S
Zn28  N121  2.166 1_455  S
Zn28  N124  2.118 .      S
Zn29  N65   2.158 .      S
Zn29  N125  2.211 .      S
Zn29  N128  2.098 .      S
Zn29  N129  2.057 .      S
Zn30  N14   2.250 .      S
Zn30  N93   2.156 .      S
Zn30  N122  2.120 .      S
Zn30  N131  2.162 .      S
Zn31  N2    2.186 .      S
Zn31  N92   2.179 .      S
Zn31  N102  2.206 .      S
Zn31  N133  2.237 .      S
Zn32  N123  2.259 .      S
Zn32  N130  2.112 1_455  S
Zn32  N134  2.260 1_455  S
Zn32  N135  2.140 .      S
Zn33  N7    2.207 .      S
Zn33  N23   2.206 1_545  S
Zn33  N111  2.251 .      S
Zn33  N132  2.205 .      S
Zn34  N20   2.195 .      S
Zn34  N109  2.302 .      S
Zn34  N116  2.240 .      S
Zn34  N136  2.122 .      S
C1    C2    1.494 .      S
C1    H1    1.087 .      S
C1    H2    1.087 1_655  S
C1    H3    1.082 .      S
C2    C3    1.475 .      S
C2    C4    1.444 .      S
C2    H4    1.075 .      S
C3    H5    1.094 .      S
C3    H6    1.079 .      S
C3    H7    1.070 .      S
C6    H8    1.072 .      S
C7    H9    1.081 .      S
C8    C11   1.467 .      S
C9    H10   1.073 .      S
C11   O2    1.345 .      S
O2    H11   0.965 .      S
H2    C1    1.087 1_455  S
C12   C13   1.489 .      S
C12   H12   1.098 .      S
C12   H13   1.099 .      S
C12   H14   1.104 .      S
C13   C14   1.519 .      S
C13   C15   1.455 .      S
C13   H15   1.102 .      S
C14   H16   1.104 .      S
C14   H17   1.104 .      S
C14   H18   1.100 .      S
C17   H19   1.068 .      S
C18   H20   1.080 1_554  S
C19   C22   1.436 1_554  S
C20   H21   1.069 .      S
C22   C19   1.436 1_556  S
C22   O4    1.333 .      S
O4    H22   0.953 1_565  S
H20   C18   1.080 1_556  S
H22   O4    0.953 1_545  S
C23   C24   1.511 .      S
C23   H23   1.108 .      S
C23   H24   1.096 .      S
C23   H25   1.102 .      S
C24   C25   1.521 .      S
C24   C26   1.517 .      S
C24   H26   1.097 .      S
C25   H27   1.108 .      S
C25   H28   1.105 .      S
C25   H29   1.102 .      S
N5    Zn3   2.122 1_565  S
C28   H30   1.050 .      S
C29   H31   1.066 .      S
C30   C33   1.458 .      S
C31   H32   1.073 .      S
C33   O6    1.346 .      S
O6    H33   0.964 .      S
C34   C35   1.506 .      S
C34   H34   1.097 1_455  S
C34   H35   1.103 1_545  S
C34   H36   1.089 .      S
C35   C36   1.464 1_545  S
C35   C37   1.473 1_455  S
C35   H37   1.107 .      S
C36   C35   1.464 1_565  S
C36   H38   1.066 .      S
C36   H39   1.084 .      S
C36   H40   1.104 .      S
C37   C35   1.473 1_655  S
C39   H41   1.048 .      S
C40   H42   1.078 .      S
C41   C44   1.459 .      S
C42   H43   1.041 .      S
N8    Zn5   2.276 1_655  S
C44   O8    1.346 .      S
O8    H44   0.963 .      S
H34   C34   1.097 1_655  S
H35   C34   1.103 1_565  S
C45   C46   1.509 1_455  S
C45   H45   1.101 .      S
C45   H46   1.092 1_455  S
C45   H47   1.098 .      S
C46   C45   1.509 1_655  S
C46   C47   1.498 .      S
C46   C48   1.463 .      S
C46   H48   1.106 .      S
C47   H49   1.099 .      S
C47   H50   1.087 .      S
C47   H51   1.060 .      S
C50   H52   1.067 .      S
C51   H53   1.064 .      S
C52   C55   1.437 .      S
C53   H54   1.056 .      S
C55   O10   1.326 .      S
O10   H55   0.955 .      S
H46   C45   1.092 1_655  S
C56   C57   1.507 .      S
C56   H56   1.105 .      S
C56   H57   1.103 .      S
C56   H58   1.099 .      S
C57   C58   1.522 .      S
C57   C59   1.496 .      S
C57   H59   1.098 .      S
C58   H60   1.097 .      S
C58   H61   1.094 .      S
C58   H62   1.096 .      S
C61   H63   1.065 .      S
C62   H64   1.067 .      S
C63   C66   1.452 1_455  S
C64   H65   1.065 .      S
N12   Zn5   2.226 1_565  S
C66   C63   1.452 1_655  S
C66   O12   1.338 .      S
O12   H66   0.963 .      S
C67   C68   1.495 .      S
C67   H67   1.094 .      S
C67   H68   1.087 .      S
C67   H69   1.108 .      S
C68   C69   1.495 .      S
C68   C70   1.474 .      S
C68   H70   1.103 .      S
C69   H71   1.107 .      S
C69   H72   1.095 .      S
C69   H73   1.092 .      S
C72   H74   1.078 .      S
C73   H75   1.081 .      S
C74   C77   1.465 .      S
C75   H76   1.066 .      S
C77   O14   1.345 .      S
O14   H77   0.964 .      S
C78   C79   1.517 .      S
C78   H78   1.105 .      S
C78   H79   1.108 .      S
C78   H80   1.100 .      S
C79   C80   1.511 .      S
C79   C81   1.483 .      S
C79   H81   1.096 .      S
C80   H82   1.099 .      S
C80   H83   1.105 .      S
C80   H84   1.085 .      S
C83   H85   1.056 .      S
C84   H86   1.065 .      S
C85   C88   1.464 .      S
C86   H87   1.069 .      S
C88   O16   1.326 .      S
O16   H88   0.964 .      S
C89   C90   1.448 .      S
C89   H89   1.092 .      S
C89   H90   1.105 .      S
C89   H91   1.082 .      S
C90   C91   1.497 .      S
C90   C92   1.460 .      S
C90   H92   1.091 .      S
C91   H93   1.098 .      S
C91   H94   1.107 .      S
C91   H95   1.096 .      S
C94   H96   1.074 .      S
C95   H97   1.080 .      S
C96   C99   1.468 .      S
C97   H98   1.081 .      S
C99   O18   1.346 .      S
O18   H99   0.966 .      S
C100  C101  1.497 .      S
C100  H100  1.104 .      S
C100  H101  1.097 .      S
C100  H102  1.103 .      S
C101  C102  1.507 .      S
C101  C103  1.488 .      S
C101  H103  1.109 .      S
C102  H104  1.106 .      S
C102  H105  1.104 .      S
C102  H106  1.101 .      S
C105  H107  1.077 .      S
C106  H108  1.077 .      S
C107  C110  1.466 .      S
C108  H109  1.071 .      S
C110  O20   1.343 .      S
O20   H110  0.966 .      S
C111  C112  1.475 .      S
C111  H111  1.096 .      S
C111  H112  1.099 .      S
C111  H113  1.103 .      S
C112  C113  1.505 .      S
C112  C114  1.424 .      S
C112  H114  1.065 .      S
C113  H115  1.106 .      S
C113  H116  1.090 .      S
C113  H117  1.093 .      S
C116  H118  1.074 .      S
C117  H119  1.079 .      S
C118  C121  1.468 .      S
C119  H120  1.057 .      S
C121  O22   1.344 .      S
O22   H121  0.965 .      S
C122  C123  1.483 .      S
C122  H122  1.100 .      S
C122  H123  1.091 .      S
C122  H124  1.105 .      S
C123  C124  1.502 .      S
C123  C125  1.455 1_545  S
C123  H125  1.100 .      S
C124  H126  1.102 .      S
C124  H127  1.081 .      S
C124  H128  1.082 .      S
C125  C123  1.455 1_565  S
N23   Zn33  2.206 1_565  S
C127  H129  1.057 1_455  S
C128  H130  1.067 .      S
C129  C132  1.463 .      S
C130  H131  1.050 .      S
N24   Zn10  2.112 1_655  S
C132  O24   1.342 .      S
O24   H132  0.966 .      S
H129  C127  1.057 1_655  S
C133  C134  1.490 1_564  S
C133  H133  1.102 1_554  S
C133  H134  1.102 1_554  S
C133  H135  1.100 .      S
C134  C133  1.490 1_546  S
C134  C135  1.517 .      S
C134  C136  1.483 1_556  S
C134  H136  1.109 .      S
C135  H137  1.109 .      S
C135  H138  1.109 .      S
C135  H139  1.109 1_545  S
C136  C134  1.483 1_554  S
C138  H140  1.073 1_545  S
C139  H141  1.040 .      S
C140  C143  1.449 .      S
C141  H142  1.062 .      S
C143  O26   1.332 .      S
O26   H143  0.959 .      S
H133  C133  1.102 1_556  S
H134  C133  1.102 1_556  S
H139  C135  1.109 1_565  S
H140  C138  1.073 1_565  S
C144  C145  1.494 1_565  S
C144  H144  1.103 .      S
C144  H145  1.086 .      S
C144  H146  1.091 .      S
C145  C144  1.494 1_545  S
C145  C146  1.468 .      S
C145  C147  1.418 .      S
C145  H147  1.079 .      S
C146  H148  1.067 .      S
C146  H149  1.077 1_545  S
C146  H150  1.106 .      S
C149  H151  1.052 .      S
C150  H152  1.081 .      S
C151  C154  1.467 .      S
C152  H153  1.079 .      S
C154  O28   1.346 .      S
O28   H154  0.966 .      S
H149  C146  1.077 1_565  S
C155  C156  1.497 .      S
C155  H155  1.098 .      S
C155  H156  1.102 .      S
C155  H157  1.101 .      S
C156  C157  1.513 .      S
C156  C158  1.479 .      S
C156  H158  1.095 .      S
C157  H159  1.106 1_554  S
C157  H160  1.108 .      S
C157  H161  1.095 .      S
N29   Zn11  2.238 1_556  S
C160  H162  1.080 .      S
C161  H163  1.081 .      S
C162  C165  1.466 .      S
C163  H164  1.073 .      S
C165  O30   1.343 .      S
O30   H165  0.966 .      S
H159  C157  1.106 1_556  S
C166  C167  1.508 .      S
C166  H166  1.106 .      S
C166  H167  1.109 .      S
C166  H168  1.104 .      S
C167  C168  1.513 .      S
C167  C169  1.501 .      S
C167  H169  1.108 .      S
C168  H170  1.103 .      S
C168  H171  1.109 .      S
C168  H172  1.108 .      S
C171  H173  1.046 .      S
C172  H174  1.074 .      S
C173  C176  1.428 .      S
C174  H175  1.069 .      S
C176  O32   1.334 .      S
O32   H176  0.956 .      S
C177  C178  1.513 .      S
C177  H177  1.096 .      S
C177  H178  1.101 .      S
C177  H179  1.102 .      S
C178  C179  1.501 .      S
C178  C180  1.492 .      S
C178  H180  1.091 .      S
C179  H181  1.106 .      S
C179  H182  1.097 .      S
C179  H183  1.098 .      S
C182  H184  1.070 .      S
C183  H185  1.081 .      S
C184  C187  1.466 .      S
C185  H186  1.075 .      S
N34   Zn12  2.214 1_556  S
C187  O34   1.342 .      S
O34   H187  0.966 .      S
C188  C189  1.510 .      S
C188  H188  1.096 .      S
C188  H189  1.068 .      S
C188  H190  1.106 .      S
C189  C190  1.497 .      S
C189  C191  1.393 .      S
C189  H191  1.092 .      S
C190  H192  1.098 .      S
C190  H193  1.090 .      S
C190  H194  1.093 .      S
C193  H195  1.071 .      S
C194  H196  1.077 .      S
C195  C198  1.465 .      S
C196  H197  1.077 .      S
C198  O36   1.346 .      S
O36   H198  0.966 .      S
C199  C200  1.515 .      S
C199  H199  1.106 .      S
C199  H200  1.109 .      S
C199  H201  1.103 .      S
C200  C201  1.492 .      S
C200  C202  1.492 1_545  S
C200  H202  1.102 .      S
C201  H203  1.102 .      S
C201  H204  1.085 .      S
C201  H205  1.107 .      S
C202  C200  1.492 1_565  S
C204  H206  1.072 .      S
C205  H207  1.079 .      S
C206  C209  1.459 .      S
C207  H208  1.063 .      S
C209  O38   1.339 .      S
O38   H209  0.964 .      S
C210  C211  1.518 .      S
C210  H210  1.108 .      S
C210  H211  1.108 .      S
C210  H212  1.107 .      S
C211  C212  1.510 .      S
C211  C213  1.465 .      S
C211  H213  1.107 .      S
C212  H214  1.103 .      S
C212  H215  1.087 .      S
C212  H216  1.092 .      S
C215  H217  1.068 .      S
C216  H218  1.069 .      S
C217  C220  1.442 .      S
C218  H219  1.072 .      S
N40   Zn13  2.230 1_565  S
C220  O40   1.333 .      S
O40   H220  0.959 .      S
C221  C222  1.520 .      S
C221  H221  1.100 .      S
C221  H222  1.109 1_545  S
C221  H223  1.106 .      S
C222  C223  1.492 .      S
C222  C224  1.491 .      S
C222  H224  1.095 1_545  S
C223  H225  1.101 .      S
C223  H226  1.098 1_545  S
C223  H227  1.092 1_545  S
C226  H228  1.079 .      S
C227  H229  1.081 .      S
C228  C231  1.467 .      S
C229  H230  1.076 .      S
C231  O42   1.344 .      S
O42   H231  0.966 .      S
H222  C221  1.109 1_565  S
H224  C222  1.095 1_565  S
H226  C223  1.098 1_565  S
H227  C223  1.092 1_565  S
C232  C233  1.504 .      S
C232  H232  1.101 .      S
C232  H233  1.094 .      S
C232  H234  1.094 .      S
C233  C234  1.510 .      S
C233  C235  1.498 .      S
C233  H235  1.093 .      S
C234  H236  1.104 .      S
C234  H237  1.107 .      S
C234  H238  1.094 .      S
N43   Zn13  2.130 1_565  S
C237  H239  1.067 .      S
C238  H240  1.080 .      S
C239  C242  1.467 .      S
C240  H241  1.071 .      S
C242  O44   1.344 .      S
O44   H242  0.965 .      S
C243  C244  1.481 1_554  S
C243  H243  1.081 1_554  S
C243  H244  1.085 .      S
C243  H245  1.088 .      S
C244  C243  1.481 1_556  S
C244  C245  1.496 .      S
C244  C246  1.464 .      S
C244  H246  1.102 1_556  S
C245  H247  1.106 .      S
C245  H248  1.106 .      S
C245  H249  1.082 .      S
C248  H250  1.069 .      S
C249  H251  1.061 .      S
C250  C253  1.382 .      S
C251  H252  1.077 .      S
C253  O46   1.321 .      S
O46   H253  0.950 .      S
H243  C243  1.081 1_556  S
H246  C244  1.102 1_554  S
C254  C255  1.482 .      S
C254  H254  1.087 .      S
C254  H255  1.103 .      S
C254  H256  1.088 .      S
C255  C256  1.496 .      S
C255  C257  1.467 .      S
C255  H257  1.109 .      S
C256  H258  1.102 .      S
C256  H259  1.106 .      S
C256  H260  1.100 .      S
N47   Zn14  2.227 1_554  S
C259  H261  1.057 1_554  S
C260  H262  1.079 .      S
C261  C264  1.468 .      S
C262  H263  1.061 .      S
C264  O48   1.347 .      S
O48   H264  0.966 .      S
H261  C259  1.057 1_556  S
C265  C266  1.512 .      S
C265  H265  1.090 .      S
C265  H266  1.107 .      S
C265  H267  1.104 .      S
C266  C267  1.520 .      S
C266  C268  1.493 .      S
C266  H268  1.107 .      S
C267  H269  1.097 .      S
C267  H270  1.100 .      S
C267  H271  1.101 .      S
C270  H272  1.051 .      S
C271  H273  1.081 .      S
C272  C275  1.467 .      S
C273  H274  1.080 .      S
C275  O50   1.346 .      S
O50   H275  0.966 .      S
C276  C277  1.492 1_565  S
C276  H276  1.082 .      S
C276  H277  1.087 .      S
C276  H278  1.105 .      S
C277  C276  1.492 1_545  S
C277  C278  1.473 .      S
C277  C279  1.439 .      S
C277  H279  1.094 .      S
C278  H280  1.080 1_554  S
C278  H281  1.094 .      S
C278  H282  1.103 .      S
N51   Zn15  2.206 1_554  S
C281  H283  1.072 1_554  S
C282  H284  1.077 .      S
C283  C286  1.463 .      S
C284  H285  1.058 .      S
C286  O52   1.343 .      S
O52   H286  0.966 .      S
H280  C278  1.080 1_556  S
H283  C281  1.072 1_556  S
C287  C288  1.496 .      S
C287  H287  1.099 .      S
C287  H288  1.106 .      S
C287  H289  1.099 .      S
C288  C289  1.510 .      S
C288  C290  1.498 .      S
C288  H290  1.097 .      S
C289  H291  1.105 .      S
C289  H292  1.102 .      S
C289  H293  1.106 .      S
C292  H294  1.071 .      S
C293  H295  1.081 .      S
C294  C297  1.468 .      S
C295  H296  1.067 .      S
C297  O54   1.346 .      S
O54   H297  0.966 .      S
C298  C299  1.509 1_545  S
C298  H298  1.105 .      S
C298  H299  1.107 .      S
C298  H300  1.100 .      S
C299  C298  1.509 1_565  S
C299  C300  1.500 .      S
C299  C301  1.512 .      S
C299  H301  1.079 .      S
C300  H302  1.100 .      S
C300  H303  1.107 .      S
C300  H304  1.083 .      S
C303  H305  1.069 .      S
C304  H306  1.065 .      S
C305  C308  1.451 .      S
C306  H307  1.043 .      S
C308  O56   1.339 .      S
O56   H308  0.964 .      S
C309  C310  1.499 .      S
C309  H309  1.105 .      S
C309  H310  1.103 .      S
C309  H311  1.106 .      S
C310  C311  1.466 .      S
C310  C312  1.484 .      S
C310  H312  1.070 .      S
C311  H313  1.107 .      S
C311  H314  1.094 .      S
C311  H315  1.087 .      S
C314  H316  1.065 .      S
C315  H317  1.081 .      S
C316  C319  1.468 .      S
C317  H318  1.073 .      S
C319  O58   1.346 .      S
O58   H319  0.966 .      S
C320  C321  1.468 .      S
C320  H320  1.084 .      S
C320  H321  1.107 .      S
C320  H322  1.089 .      S
C321  C322  1.494 .      S
C321  C323  1.477 .      S
C321  H323  1.096 .      S
C322  H324  1.097 .      S
C322  H325  1.102 .      S
C322  H326  1.098 .      S
C325  H327  1.073 .      S
C326  H328  1.080 1_545  S
C327  C330  1.459 .      S
C328  H329  1.072 .      S
C330  O60   1.344 .      S
O60   H330  0.964 .      S
H328  C326  1.080 1_565  S
C331  C332  1.515 .      S
C331  H331  1.102 .      S
C331  H332  1.107 .      S
C331  H333  1.108 .      S
C332  C333  1.512 .      S
C332  C334  1.508 .      S
C332  H334  1.107 .      S
C333  H335  1.100 .      S
C333  H336  1.105 .      S
C333  H337  1.093 .      S
C336  H338  1.043 .      S
C337  H339  1.077 .      S
C338  C341  1.440 1_455  S
C339  H340  1.057 .      S
C341  C338  1.440 1_655  S
C341  O62   1.345 .      S
O62   H341  0.964 .      S
C342  C343  1.505 .      S
C342  H342  1.096 .      S
C342  H343  1.100 .      S
C342  H344  1.100 .      S
C343  C344  1.491 1_565  S
C343  C345  1.495 .      S
C343  H345  1.093 .      S
C344  C343  1.491 1_545  S
C344  H346  1.105 .      S
C344  H347  1.108 1_545  S
C344  H348  1.097 1_545  S
C347  H349  1.074 .      S
C348  H350  1.080 .      S
C349  C352  1.464 .      S
C350  H351  1.074 .      S
C352  O64   1.342 .      S
O64   H352  0.963 .      S
H347  C344  1.108 1_565  S
H348  C344  1.097 1_565  S
C353  C354  1.478 .      S
C353  H353  1.073 .      S
C353  H354  1.102 .      S
C353  H355  1.103 .      S
C354  C355  1.487 .      S
C354  C356  1.473 .      S
C354  H356  1.090 .      S
C355  H357  1.080 .      S
C355  H358  1.102 .      S
C355  H359  1.100 .      S
C358  H360  1.053 .      S
C359  H361  1.062 .      S
C360  C363  1.439 .      S
C361  H362  1.065 .      S
C363  O66   1.341 .      S
O66   H363  0.958 .      S
C364  C365  1.518 1_545  S
C364  H364  1.096 .      S
C364  H365  1.108 .      S
C364  H366  1.099 .      S
C365  C364  1.518 1_565  S
C365  C366  1.482 .      S
C365  C367  1.470 .      S
C365  H367  1.084 .      S
C366  H368  1.105 .      S
C366  H369  1.107 1_565  S
C366  H370  1.085 .      S
C369  H371  1.053 .      S
C370  H372  1.081 .      S
C371  C374  1.466 .      S
C372  H373  1.077 .      S
C374  O68   1.346 .      S
O68   H374  0.965 .      S
H369  C366  1.107 1_545  S
C375  C376  1.518 .      S
C375  H375  1.106 .      S
C375  H376  1.108 .      S
C375  H377  1.104 .      S
C376  C377  1.489 .      S
C376  C378  1.505 .      S
C376  H378  1.103 .      S
C377  H379  1.073 .      S
C377  H380  1.096 .      S
C377  H381  1.108 .      S
C380  H382  1.074 .      S
C381  H383  1.080 .      S
C382  C385  1.466 .      S
C383  H384  1.054 .      S
C385  O70   1.345 .      S
O70   H385  0.965 .      S
C386  C387  1.500 .      S
C386  H386  1.084 .      S
C386  H387  1.109 .      S
C386  H388  1.097 .      S
C387  C388  1.496 .      S
C387  C389  1.469 .      S
C387  H389  1.086 .      S
C388  H390  1.091 .      S
C388  H391  1.107 .      S
C388  H392  1.094 .      S
C391  H393  1.057 .      S
C392  H394  1.078 .      S
C393  C396  1.458 .      S
C394  H395  1.060 .      S
C396  O72   1.340 .      S
O72   H396  0.963 .      S
C397  C398  1.482 1_556  S
C397  H397  1.101 .      S
C397  H398  1.089 .      S
C397  H399  1.057 .      S
C398  C397  1.482 1_554  S
C398  C399  1.497 .      S
C398  C400  1.493 .      S
C398  H400  1.060 .      S
C399  H401  1.103 .      S
C399  H402  1.090 .      S
C399  H403  1.093 .      S
C402  H404  1.065 .      S
C403  H405  1.079 .      S
C404  C407  1.462 .      S
C405  H406  1.078 1_554  S
N74   Zn18  2.165 1_554  S
C407  O74   1.346 1_554  S
O74   C407  1.346 1_556  S
O74   H407  0.965 .      S
H406  C405  1.078 1_556  S
C408  C409  1.501 .      S
C408  H408  1.098 .      S
C408  H409  1.108 .      S
C408  H410  1.104 .      S
C409  C410  1.511 .      S
C409  C411  1.485 .      S
C409  H411  1.097 .      S
C410  H412  1.107 .      S
C410  H413  1.102 .      S
C410  H414  1.096 .      S
C413  H415  1.068 .      S
C414  H416  1.080 .      S
C415  C418  1.465 .      S
C416  H417  1.065 .      S
C418  O76   1.341 .      S
O76   H418  0.964 .      S
C419  C420  1.494 .      S
C419  H419  1.079 .      S
C419  H420  1.108 .      S
C419  H421  1.102 .      S
C420  C421  1.511 .      S
C420  C422  1.474 .      S
C420  H422  1.097 .      S
C421  H423  1.104 .      S
C421  H424  1.109 .      S
C421  H425  1.100 .      S
C424  H426  1.078 .      S
C425  H427  1.081 .      S
C426  C429  1.465 .      S
C427  H428  1.079 .      S
C429  O78   1.347 .      S
O78   H429  0.966 .      S
C430  C431  1.461 .      S
C430  H430  1.106 1_655  S
C430  H431  1.103 .      S
C430  H432  1.104 .      S
C431  C432  1.472 .      S
C431  C433  1.436 1_545  S
C431  H433  1.095 .      S
C432  H434  1.098 .      S
C432  H435  1.105 1_645  S
C432  H436  1.095 1_545  S
C433  C431  1.436 1_565  S
C435  H437  1.072 .      S
C436  H438  1.077 1_655  S
C437  C440  1.425 .      S
C438  H439  1.069 .      S
N80   Zn20  2.224 1_565  S
C440  O80   1.339 .      S
O80   H440  0.961 .      S
H430  C430  1.106 1_455  S
H435  C432  1.105 1_465  S
H436  C432  1.095 1_565  S
H438  C436  1.077 1_455  S
C441  C442  1.509 .      S
C441  H441  1.104 .      S
C441  H442  1.101 .      S
C441  H443  1.104 .      S
C442  C443  1.501 .      S
C442  C444  1.478 .      S
C442  H444  1.059 .      S
C443  H445  1.101 .      S
C443  H446  1.108 .      S
C443  H447  1.105 .      S
C446  H448  1.064 .      S
C447  H449  1.077 .      S
C448  C451  1.461 .      S
C449  H450  1.077 .      S
C451  O82   1.346 .      S
O82   H451  0.966 .      S
C452  C453  1.521 1_556  S
C452  H452  1.101 .      S
C452  H453  1.103 .      S
C452  H454  1.106 .      S
C453  C452  1.521 1_554  S
C453  C454  1.521 .      S
C453  C455  1.516 .      S
C453  H455  1.090 .      S
C454  H456  1.100 .      S
C454  H457  1.108 .      S
C454  H458  1.102 .      S
C457  H459  1.040 .      S
C458  H460  1.069 .      S
C459  C462  1.415 .      S
C460  H461  1.070 .      S
N84   Zn21  2.184 1_554  S
C462  O84   1.345 1_565  S
O84   C462  1.345 1_545  S
O84   H462  0.961 .      S
C463  C464  1.484 .      S
C463  H463  1.097 .      S
C463  H464  1.097 .      S
C463  H465  1.078 .      S
C464  C465  1.521 .      S
C464  C466  1.444 .      S
C464  H466  1.097 .      S
C465  H467  1.090 .      S
C465  H468  1.091 .      S
C465  H469  1.104 .      S
C468  H470  1.049 1_565  S
C469  H471  1.081 .      S
C470  C473  1.465 .      S
C471  H472  1.068 .      S
N86   Zn21  2.209 1_545  S
C473  O86   1.347 .      S
O86   H473  0.966 .      S
H470  C468  1.049 1_545  S
C474  C475  1.507 1_556  S
C474  H474  1.098 .      S
C474  H475  1.105 1_456  S
C474  H476  1.093 .      S
C475  C474  1.507 1_554  S
C475  C476  1.468 .      S
C475  C477  1.495 1_554  S
C475  H477  1.084 .      S
C476  H478  1.092 .      S
C476  H479  1.087 .      S
C476  H480  1.097 .      S
C477  C475  1.495 1_556  S
N87   Zn21  2.121 1_545  S
C479  H481  1.071 .      S
C480  H482  1.077 .      S
C481  C484  1.468 .      S
C482  H483  1.078 .      S
C484  O88   1.348 .      S
O88   H484  0.965 .      S
H475  C474  1.105 1_654  S
C485  C486  1.512 .      S
C485  H485  1.096 .      S
C485  H486  1.102 .      S
C485  H487  1.099 .      S
C486  C487  1.488 1_655  S
C486  C488  1.436 .      S
C486  H488  1.060 .      S
C487  C486  1.488 1_455  S
C487  H489  1.086 .      S
C487  H490  1.094 .      S
C487  H491  1.072 .      S
N89   Zn3   2.294 1_655  S
C490  H492  1.053 .      S
C491  H493  1.056 1_545  S
C492  C495  1.457 .      S
C493  H494  1.056 .      S
C495  O90   1.343 .      S
O90   H495  0.964 .      S
H493  C491  1.056 1_565  S
C496  C497  1.464 .      S
C496  H496  1.094 .      S
C496  H497  1.088 .      S
C496  H498  1.076 .      S
C497  C498  1.482 .      S
C497  C499  1.466 .      S
C497  H499  1.074 .      S
C498  H500  1.095 .      S
C498  H501  1.102 .      S
C498  H502  1.104 .      S
C501  H503  1.078 .      S
C502  H504  1.080 .      S
C503  C506  1.468 .      S
C504  H505  1.075 .      S
C506  O92   1.346 .      S
O92   H506  0.966 .      S
C507  C508  1.515 .      S
C507  H507  1.103 .      S
C507  H508  1.104 .      S
C507  H509  1.094 .      S
C508  C509  1.463 .      S
C508  C510  1.448 .      S
C508  H510  1.056 .      S
C509  H511  1.093 .      S
C509  H512  1.096 .      S
C509  H513  1.081 .      S
C512  H514  1.078 .      S
C513  H515  1.080 .      S
C514  C517  1.467 .      S
C515  H516  1.079 .      S
C517  O94   1.346 .      S
O94   H517  0.966 .      S
C518  C519  1.485 .      S
C518  H518  1.076 .      S
C518  H519  1.103 .      S
C518  H520  1.080 .      S
C519  C520  1.496 .      S
C519  C521  1.444 .      S
C519  H521  1.098 .      S
C520  H522  1.076 .      S
C520  H523  1.102 .      S
C520  H524  1.096 .      S
N95   Zn9   2.172 1_655  S
C523  H525  1.075 .      S
C524  H526  1.081 .      S
C525  C528  1.462 .      S
C526  H527  1.059 1_455  S
N96   Zn23  2.207 1_554  S
C528  O96   1.328 .      S
O96   H528  0.953 .      S
H527  C526  1.059 1_655  S
C529  C530  1.505 .      S
C529  H529  1.094 .      S
C529  H530  1.104 .      S
C529  H531  1.092 .      S
C530  C531  1.479 .      S
C530  C532  1.464 1_455  S
C530  H532  1.096 1_455  S
C531  H533  1.088 1_455  S
C531  H534  1.091 .      S
C531  H535  1.079 .      S
C532  C530  1.464 1_655  S
N97   Zn10  2.149 1_655  S
C534  H536  1.050 .      S
C535  H537  1.074 .      S
C536  C539  1.474 1_565  S
C537  H538  1.065 .      S
C539  C536  1.474 1_545  S
C539  O98   1.340 .      S
O98   H539  0.966 .      S
H532  C530  1.096 1_655  S
H533  C531  1.088 1_655  S
C540  C541  1.491 .      S
C540  H540  1.097 .      S
C540  H541  1.107 .      S
C540  H542  1.075 .      S
C541  C542  1.489 .      S
C541  C543  1.497 .      S
C541  H543  1.104 .      S
C542  H544  1.105 .      S
C542  H545  1.104 .      S
C542  H546  1.105 .      S
N99   Zn24  2.129 1_554  S
C545  H547  1.067 .      S
C546  H548  1.075 .      S
C547  C550  1.465 .      S
C548  H549  1.078 .      S
C550  O100  1.346 1_556  S
O100  C550  1.346 1_554  S
O100  H550  0.966 .      S
C551  C552  1.522 .      S
C551  H551  1.107 .      S
C551  H552  1.106 .      S
C551  H553  1.101 .      S
C552  C553  1.513 .      S
C552  C554  1.515 .      S
C552  H554  1.081 .      S
C553  H555  1.102 .      S
C553  H556  1.096 .      S
C553  H557  1.093 .      S
C556  H558  1.055 .      S
C557  H559  1.079 .      S
C558  C561  1.425 .      S
C559  H560  1.061 .      S
C561  O102  1.334 .      S
O102  H561  0.950 .      S
C562  C563  1.490 .      S
C562  H562  1.096 .      S
C562  H563  1.098 .      S
C562  H564  1.103 .      S
C563  C564  1.467 1_455  S
C563  C565  1.436 .      S
C563  H565  1.053 .      S
C564  C563  1.467 1_655  S
C564  H566  1.094 .      S
C564  H567  1.105 .      S
C564  H568  1.084 .      S
C567  H569  1.062 .      S
C568  H570  1.077 .      S
C569  C572  1.468 .      S
C570  H571  1.051 .      S
C572  O104  1.340 .      S
O104  H572  0.966 .      S
C573  C574  1.483 .      S
C573  H573  1.094 .      S
C573  H574  1.096 .      S
C573  H575  1.102 .      S
C574  C575  1.521 .      S
C574  C576  1.495 .      S
C574  H576  1.086 .      S
C575  H577  1.095 1_655  S
C575  H578  1.103 .      S
C575  H579  1.086 1_655  S
C578  H580  1.062 .      S
C579  H581  1.075 1_654  S
C580  C583  1.450 1_554  S
C581  H582  1.073 .      S
C583  C580  1.450 1_556  S
C583  O106  1.343 .      S
O106  H583  0.963 .      S
H577  C575  1.095 1_455  S
H579  C575  1.086 1_455  S
H581  C579  1.075 1_456  S
C584  C585  1.507 .      S
C584  H584  1.104 .      S
C584  H585  1.108 .      S
C584  H586  1.094 .      S
C585  C586  1.531 .      S
C585  C587  1.507 .      S
C585  H587  1.107 .      S
C586  H588  1.105 .      S
C586  H589  1.105 .      S
C586  H590  1.103 .      S
C589  H591  1.045 .      S
C590  H592  1.069 .      S
C591  C594  1.417 .      S
C592  H593  1.070 .      S
C594  O108  1.320 1_655  S
O108  C594  1.320 1_455  S
O108  H594  0.951 .      S
C595  C596  1.507 .      S
C595  H595  1.098 .      S
C595  H596  1.079 .      S
C595  H597  1.107 .      S
C596  C597  1.476 .      S
C596  C598  1.452 .      S
C596  H598  1.076 .      S
C597  H599  1.071 1_655  S
C597  H600  1.071 .      S
C597  H601  1.055 1_655  S
C600  H602  1.043 .      S
C601  H603  1.079 .      S
C602  C605  1.467 .      S
C603  H604  1.058 .      S
C605  O110  1.344 1_565  S
O110  C605  1.344 1_545  S
O110  H605  0.964 .      S
H599  C597  1.071 1_455  S
H601  C597  1.055 1_455  S
C606  C607  1.482 .      S
C606  H606  1.093 .      S
C606  H607  1.102 .      S
C606  H608  1.092 .      S
C607  C608  1.519 .      S
C607  C609  1.521 .      S
C607  H609  1.086 .      S
C608  H610  1.102 1_565  S
C608  H611  1.106 .      S
C608  H612  1.094 1_565  S
C611  H613  1.071 .      S
C612  H614  1.078 .      S
C613  C616  1.469 .      S
C614  H615  1.080 1_545  S
C616  O112  1.346 .      S
O112  H616  0.966 .      S
H610  C608  1.102 1_545  S
H612  C608  1.094 1_545  S
H615  C614  1.080 1_565  S
C617  C618  1.509 1_455  S
C617  H617  1.072 .      S
C617  H618  1.089 .      S
C617  H619  1.075 .      S
C618  C617  1.509 1_655  S
C618  C619  1.501 .      S
C618  C620  1.458 .      S
C618  H620  1.086 .      S
C619  H621  1.080 .      S
C619  H622  1.082 .      S
C619  H623  1.062 .      S
C622  H624  1.065 .      S
C623  H625  1.062 .      S
C624  C627  1.447 1_655  S
C625  H626  1.080 .      S
C627  C624  1.447 1_455  S
C627  O114  1.348 .      S
O114  H627  0.964 .      S
C628  C629  1.467 .      S
C628  H628  1.092 .      S
C628  H629  1.097 .      S
C628  H630  1.092 .      S
C629  C630  1.506 .      S
C629  C631  1.450 .      S
C629  H631  1.103 .      S
C630  H632  1.107 .      S
C630  H633  1.102 .      S
C630  H634  1.103 .      S
C633  H635  1.079 .      S
C634  H636  1.080 .      S
C635  C638  1.465 .      S
C636  H637  1.061 .      S
C638  O116  1.345 .      S
O116  H638  0.966 .      S
C639  C640  1.485 .      S
C639  H639  1.083 1_655  S
C639  H640  1.081 .      S
C639  H641  1.095 .      S
C640  C641  1.483 .      S
C640  C642  1.506 1_655  S
C640  H642  1.070 .      S
C641  H643  1.085 .      S
C641  H644  1.101 .      S
C641  H645  1.095 .      S
C642  C640  1.506 1_455  S
C644  H646  1.069 .      S
C645  H647  1.081 .      S
C646  C649  1.467 .      S
C647  H648  1.080 .      S
C649  O118  1.346 .      S
O118  H649  0.966 .      S
H639  C639  1.083 1_455  S
C650  C651  1.509 .      S
C650  H650  1.109 .      S
C650  H651  1.109 .      S
C650  H652  1.080 .      S
C651  C652  1.505 .      S
C651  C653  1.524 .      S
C651  H653  1.073 .      S
C652  H654  1.091 .      S
C652  H655  1.108 1_545  S
C652  H656  1.107 .      S
C655  H657  1.069 .      S
C656  H658  1.078 .      S
C657  C660  1.469 .      S
C658  H659  1.070 .      S
C660  O120  1.345 .      S
O120  H660  0.966 .      S
H655  C652  1.108 1_565  S
C661  C662  1.483 .      S
C661  H661  1.103 1_655  S
C661  H662  1.107 1_655  S
C661  H663  1.084 .      S
C662  C663  1.457 .      S
C662  C664  1.469 .      S
C662  H664  1.090 .      S
C663  H665  1.082 .      S
C663  H666  1.087 .      S
C663  H667  1.084 1_655  S
N121  Zn28  2.166 1_655  S
C666  H668  1.079 1_655  S
C667  H669  1.079 .      S
C668  C671  1.459 .      S
C669  H670  1.063 .      S
C671  O122  1.343 .      S
O122  H671  0.960 .      S
H661  C661  1.103 1_455  S
H662  C661  1.107 1_455  S
H667  C663  1.084 1_455  S
H668  C666  1.079 1_455  S
C672  C673  1.507 .      S
C672  H672  1.105 .      S
C672  H673  1.085 .      S
C672  H674  1.086 .      S
C673  C674  1.493 1_455  S
C673  C675  1.407 .      S
C673  H675  1.090 .      S
C674  C673  1.493 1_655  S
C674  H676  1.108 .      S
C674  H677  1.094 .      S
C674  H678  1.101 .      S
C677  H679  1.061 .      S
C678  H680  1.081 .      S
C679  C682  1.459 .      S
C680  H681  1.069 .      S
C682  O124  1.345 .      S
O124  H682  0.963 .      S
C683  C684  1.508 1_455  S
C683  H683  1.093 1_455  S
C683  H684  1.108 .      S
C683  H685  1.107 .      S
C684  C683  1.508 1_655  S
C684  C685  1.481 .      S
C684  C686  1.465 .      S
C684  H686  1.091 .      S
C685  H687  1.089 .      S
C685  H688  1.089 .      S
C685  H689  1.093 .      S
C688  H690  1.037 .      S
C689  H691  1.069 .      S
C690  C693  1.424 .      S
C691  H692  1.054 .      S
N126  Zn9   2.127 1_655  S
C693  O126  1.334 .      S
O126  H693  0.960 .      S
H683  C683  1.093 1_655  S
C694  C695  1.492 .      S
C694  H694  1.102 .      S
C694  H695  1.099 .      S
C694  H696  1.099 .      S
C695  C696  1.511 .      S
C695  C697  1.510 .      S
C695  H697  1.100 .      S
C696  H698  1.100 .      S
C696  H699  1.105 .      S
C696  H700  1.102 .      S
C699  H701  1.073 .      S
C700  H702  1.047 .      S
C701  C704  1.461 .      S
C702  H703  1.048 .      S
C704  O128  1.342 1_655  S
O128  C704  1.342 1_455  S
O128  H704  0.962 .      S
C705  C706  1.508 .      S
C705  H705  1.099 .      S
C705  H706  1.106 .      S
C705  H707  1.101 .      S
C706  C707  1.483 .      S
C706  C708  1.485 .      S
C706  H708  1.089 .      S
C707  H709  1.103 .      S
C707  H710  1.093 .      S
C707  H711  1.080 .      S
C710  H712  1.062 .      S
C711  H713  1.074 .      S
C712  C715  1.466 .      S
C713  H714  1.052 .      S
N130  Zn32  2.112 1_655  S
C715  O130  1.339 .      S
O130  H715  0.966 .      S
C716  C717  1.500 .      S
C716  H716  1.097 .      S
C716  H717  1.099 .      S
C716  H718  1.106 .      S
C717  C718  1.478 .      S
C717  C719  1.471 .      S
C717  H719  1.072 .      S
C718  H720  1.087 1_655  S
C718  H721  1.077 .      S
C718  H722  1.090 .      S
C721  H723  1.080 .      S
C722  H724  1.080 .      S
C723  C726  1.468 .      S
C724  H725  1.062 .      S
C726  O132  1.345 .      S
O132  H726  0.966 .      S
H720  C718  1.087 1_455  S
C727  C728  1.474 .      S
C727  H727  1.097 1_455  S
C727  H728  1.098 .      S
C727  H729  1.105 .      S
C728  C729  1.504 .      S
C728  C730  1.522 1_455  S
C728  H730  1.098 .      S
C729  H731  1.086 .      S
C729  H732  1.110 .      S
C729  H733  1.103 .      S
C730  C728  1.522 1_655  S
C732  H734  1.042 .      S
C733  H735  1.080 .      S
C734  C737  1.453 .      S
C735  H736  1.057 .      S
N134  Zn32  2.260 1_655  S
C737  O134  1.346 .      S
O134  H737  0.964 .      S
H727  C727  1.097 1_655  S
C738  C739  1.477 .      S
C738  H738  1.083 .      S
C738  H739  1.101 .      S
C738  H740  1.099 1_655  S
C739  C740  1.503 .      S
C739  C741  1.466 1_655  S
C739  H741  1.071 .      S
C740  H742  1.094 .      S
C740  H743  1.101 .      S
C740  H744  1.070 .      S
C741  C739  1.466 1_455  S
C743  H745  1.079 .      S
C744  H746  1.081 .      S
C745  C748  1.467 .      S
C746  H747  1.076 .      S
C748  O136  1.346 .      S
O136  H748  0.966 .      S
H740  C738  1.099 1_455  S
C4    N1    1.405 .      A
C4    N2    1.359 .      A
N1    C5    1.355 .      A
C5    C6    1.372 .      A
C5    C10   1.373 .      A
C6    C7    1.379 .      A
C7    C8    1.387 .      A
C8    C9    1.385 .      A
C9    C10   1.382 .      A
C10   N2    1.358 .      A
C15   N3    1.387 .      A
C15   N4    1.388 .      A
N3    C16   1.349 .      A
C16   C17   1.370 .      A
C16   C21   1.349 .      A
C17   C18   1.375 .      A
C18   C19   1.382 .      A
C19   C20   1.374 .      A
C20   C21   1.347 .      A
C21   N4    1.329 .      A
C26   N5    1.388 .      A
C26   N6    1.397 .      A
N5    C27   1.344 .      A
C27   C28   1.352 1_565  A
C27   C32   1.348 .      A
C28   C27   1.352 1_545  A
C28   C29   1.374 .      A
C29   C30   1.369 1_545  A
C30   C29   1.369 1_565  A
C30   C31   1.368 .      A
C31   C32   1.372 .      A
C32   N6    1.332 .      A
C37   N7    1.403 .      A
C37   N8    1.398 .      A
N7    C38   1.325 .      A
C38   C39   1.344 .      A
C38   C43   1.364 .      A
C39   C40   1.348 .      A
C40   C41   1.364 .      A
C41   C42   1.401 .      A
C42   C43   1.370 .      A
C43   N8    1.364 .      A
C48   N9    1.384 .      A
C48   N10   1.394 1_655  A
N9    C49   1.321 .      A
C49   C50   1.349 .      A
C49   C54   1.366 1_655  A
C50   C51   1.344 1_655  A
C51   C50   1.344 1_455  A
C51   C52   1.352 .      A
C52   C53   1.373 .      A
C53   C54   1.347 .      A
C54   C49   1.366 1_455  A
C54   N10   1.342 .      A
N10   C48   1.394 1_455  A
C59   N11   1.394 .      A
C59   N12   1.417 .      A
N11   C60   1.333 .      A
C60   C61   1.357 .      A
C60   C65   1.358 .      A
C61   C62   1.367 .      A
C62   C63   1.387 .      A
C63   C64   1.373 .      A
C64   C65   1.350 .      A
C65   N12   1.339 .      A
C70   N13   1.421 .      A
C70   N14   1.389 .      A
N13   C71   1.343 .      A
C71   C72   1.367 .      A
C71   C76   1.374 .      A
C72   C73   1.381 .      A
C73   C74   1.392 .      A
C74   C75   1.388 .      A
C75   C76   1.370 .      A
C76   N14   1.355 .      A
C81   N15   1.402 .      A
C81   N16   1.406 .      A
N15   C82   1.329 .      A
C82   C83   1.345 .      A
C82   C87   1.366 .      A
C83   C84   1.350 .      A
C84   C85   1.365 .      A
C85   C86   1.400 .      A
C86   C87   1.396 .      A
C87   N16   1.368 .      A
C92   N17   1.402 .      A
C92   N18   1.389 .      A
N17   C93   1.352 .      A
C93   C94   1.361 .      A
C93   C98   1.365 .      A
C94   C95   1.385 .      A
C95   C96   1.391 .      A
C96   C97   1.387 .      A
C97   C98   1.372 .      A
C98   N18   1.341 .      A
C103  N19   1.401 .      A
C103  N20   1.391 .      A
N19   C104  1.344 .      A
C104  C105  1.366 .      A
C104  C109  1.377 .      A
C105  C106  1.377 .      A
C106  C107  1.389 .      A
C107  C108  1.390 .      A
C108  C109  1.377 .      A
C109  N20   1.358 .      A
C114  N21   1.387 .      A
C114  N22   1.400 .      A
N21   C115  1.333 .      A
C115  C116  1.369 .      A
C115  C120  1.380 .      A
C116  C117  1.372 .      A
C117  C118  1.383 .      A
C118  C119  1.390 .      A
C119  C120  1.385 .      A
C120  N22   1.381 .      A
C125  N23   1.398 .      A
C125  N24   1.386 .      A
N23   C126  1.348 .      A
C126  C127  1.338 1_655  A
C126  C131  1.352 1_655  A
C127  C126  1.338 1_455  A
C127  C128  1.387 .      A
C128  C129  1.367 .      A
C129  C130  1.362 .      A
C130  C131  1.360 .      A
C131  C126  1.352 1_455  A
C131  N24   1.325 1_455  A
N24   C131  1.325 1_655  A
C136  N25   1.421 1_545  A
C136  N26   1.411 .      A
N25   C136  1.421 1_565  A
N25   C137  1.358 1_565  A
C137  N25   1.358 1_545  A
C137  C138  1.353 .      A
C137  C142  1.372 .      A
C138  C139  1.377 .      A
C139  C140  1.367 .      A
C140  C141  1.350 .      A
C141  C142  1.357 .      A
C142  N26   1.319 .      A
C147  N27   1.387 .      A
C147  N28   1.384 .      A
N27   C148  1.358 .      A
C148  C149  1.361 .      A
C148  C153  1.373 .      A
C149  C150  1.383 .      A
C150  C151  1.392 .      A
C151  C152  1.389 .      A
C152  C153  1.370 .      A
C153  N28   1.339 .      A
C158  N29   1.418 1_554  A
C158  N30   1.392 1_554  A
N29   C158  1.418 1_556  A
N29   C159  1.341 .      A
C159  C160  1.370 .      A
C159  C164  1.373 .      A
C160  C161  1.379 .      A
C161  C162  1.392 .      A
C162  C163  1.393 .      A
C163  C164  1.368 .      A
C164  N30   1.355 .      A
N30   C158  1.392 1_556  A
C169  N31   1.409 1_556  A
C169  N32   1.419 .      A
N31   C169  1.409 1_554  A
N31   C170  1.329 .      A
C170  C171  1.345 .      A
C170  C175  1.354 .      A
C171  C172  1.353 1_545  A
C172  C171  1.353 1_565  A
C172  C173  1.371 .      A
C173  C174  1.379 1_565  A
C174  C173  1.379 1_545  A
C174  C175  1.360 .      A
C175  N32   1.339 1_554  A
N32   C175  1.339 1_556  A
C180  N33   1.421 1_554  A
C180  N34   1.400 1_554  A
N33   C180  1.421 1_556  A
N33   C181  1.351 .      A
C181  C182  1.367 .      A
C181  C186  1.375 .      A
C182  C183  1.376 .      A
C183  C184  1.389 .      A
C184  C185  1.393 .      A
C185  C186  1.376 .      A
C186  N34   1.348 .      A
N34   C180  1.400 1_556  A
C191  N35   1.395 .      A
C191  N36   1.379 .      A
N35   C192  1.358 .      A
C192  C193  1.367 .      A
C192  C197  1.383 .      A
C193  C194  1.384 .      A
C194  C195  1.388 .      A
C195  C196  1.382 .      A
C196  C197  1.368 .      A
C197  N36   1.347 .      A
C202  N37   1.422 .      A
C202  N38   1.404 1_556  A
N37   C203  1.336 .      A
C203  C204  1.356 .      A
C203  C208  1.373 1_556  A
C204  C205  1.371 .      A
C205  C206  1.380 1_556  A
C206  C205  1.380 1_554  A
C206  C207  1.393 .      A
C207  C208  1.373 .      A
C208  C203  1.373 1_554  A
C208  N38   1.357 .      A
N38   C202  1.404 1_554  A
C213  N39   1.409 .      A
C213  N40   1.409 .      A
N39   C214  1.352 .      A
C214  C215  1.360 .      A
C214  C219  1.374 .      A
C215  C216  1.380 .      A
C216  C217  1.382 1_565  A
C217  C216  1.382 1_545  A
C217  C218  1.361 .      A
C218  C219  1.354 1_545  A
C219  C218  1.354 1_565  A
C219  N40   1.326 .      A
C224  N41   1.415 .      A
C224  N42   1.396 .      A
N41   C225  1.345 .      A
C225  C226  1.367 .      A
C225  C230  1.369 .      A
C226  C227  1.379 .      A
C227  C228  1.392 .      A
C228  C229  1.393 .      A
C229  C230  1.376 .      A
C230  N42   1.353 .      A
C235  N43   1.400 1_545  A
C235  N44   1.395 1_545  A
N43   C235  1.400 1_565  A
N43   C236  1.341 .      A
C236  C237  1.363 .      A
C236  C241  1.360 .      A
C237  C238  1.379 .      A
C238  C239  1.389 .      A
C239  C240  1.388 .      A
C240  C241  1.371 .      A
C241  N44   1.348 .      A
N44   C235  1.395 1_565  A
C246  N45   1.406 .      A
C246  N46   1.386 .      A
N45   C247  1.318 .      A
C247  C248  1.343 .      A
C247  C252  1.341 .      A
C248  C249  1.346 .      A
C249  C250  1.372 .      A
C250  C251  1.352 .      A
C251  C252  1.311 .      A
C252  N46   1.315 .      A
C257  N47   1.403 .      A
C257  N48   1.386 .      A
N47   C258  1.357 .      A
C258  C259  1.361 .      A
C258  C263  1.368 .      A
C259  C260  1.382 .      A
C260  C261  1.385 .      A
C261  C262  1.380 .      A
C262  C263  1.371 .      A
C263  N48   1.342 .      A
C268  N49   1.440 .      A
C268  N50   1.403 .      A
N49   C269  1.356 .      A
C269  C270  1.353 .      A
C269  C274  1.366 .      A
C270  C271  1.380 .      A
C271  C272  1.385 .      A
C272  C273  1.384 .      A
C273  C274  1.372 .      A
C274  N50   1.338 .      A
C279  N51   1.409 .      A
C279  N52   1.374 .      A
N51   C280  1.344 .      A
C280  C281  1.369 .      A
C280  C285  1.368 .      A
C281  C282  1.376 .      A
C282  C283  1.385 .      A
C283  C284  1.385 .      A
C284  C285  1.370 .      A
C285  N52   1.355 .      A
C290  N53   1.416 .      A
C290  N54   1.410 .      A
N53   C291  1.344 .      A
C291  C292  1.365 .      A
C291  C296  1.370 .      A
C292  C293  1.381 .      A
C293  C294  1.390 .      A
C294  C295  1.388 .      A
C295  C296  1.370 .      A
C296  N54   1.354 .      A
C301  N55   1.421 .      A
C301  N56   1.405 1_565  A
N55   C302  1.341 .      A
C302  C303  1.356 .      A
C302  C307  1.350 1_565  A
C303  C304  1.386 .      A
C304  C305  1.372 1_565  A
C305  C304  1.372 1_545  A
C305  C306  1.355 .      A
C306  C307  1.349 .      A
C307  C302  1.350 1_545  A
C307  N56   1.334 .      A
N56   C301  1.405 1_545  A
C312  N57   1.396 .      A
C312  N58   1.406 .      A
N57   C313  1.359 .      A
C313  C314  1.370 .      A
C313  C318  1.369 .      A
C314  C315  1.381 .      A
C315  C316  1.389 .      A
C316  C317  1.386 .      A
C317  C318  1.370 .      A
C318  N58   1.343 .      A
C323  N59   1.382 .      A
C323  N60   1.393 .      A
N59   C324  1.334 .      A
C324  C325  1.371 .      A
C324  C329  1.349 .      A
C325  C326  1.376 .      A
C326  C327  1.386 1_545  A
C327  C326  1.386 1_565  A
C327  C328  1.385 .      A
C328  C329  1.365 1_565  A
C329  C328  1.365 1_545  A
C329  N60   1.356 .      A
C334  N61   1.411 .      A
C334  N62   1.405 .      A
N61   C335  1.337 .      A
C335  C336  1.347 .      A
C335  C340  1.352 .      A
C336  C337  1.364 .      A
C337  C338  1.367 .      A
C338  C339  1.369 .      A
C339  C340  1.361 .      A
C340  N62   1.339 .      A
C345  N63   1.398 .      A
C345  N64   1.385 1_565  A
N63   C346  1.337 1_565  A
C346  N63   1.337 1_545  A
C346  C347  1.360 .      A
C346  C351  1.355 .      A
C347  C348  1.374 .      A
C348  C349  1.384 .      A
C349  C350  1.389 .      A
C350  C351  1.382 .      A
C351  N64   1.357 .      A
N64   C345  1.385 1_545  A
C356  N65   1.392 .      A
C356  N66   1.382 .      A
N65   C357  1.342 .      A
C357  C358  1.343 .      A
C357  C362  1.353 .      A
C358  C359  1.363 .      A
C359  C360  1.373 .      A
C360  C361  1.368 .      A
C361  C362  1.352 .      A
C362  N66   1.323 .      A
C367  N67   1.409 .      A
C367  N68   1.388 .      A
N67   C368  1.356 .      A
C368  C369  1.361 .      A
C368  C373  1.366 .      A
C369  C370  1.383 .      A
C370  C371  1.387 .      A
C371  C372  1.381 .      A
C372  C373  1.378 .      A
C373  N68   1.342 .      A
C378  N69   1.394 .      A
C378  N70   1.420 .      A
N69   C379  1.344 .      A
C379  C380  1.376 .      A
C379  C384  1.372 .      A
C380  C381  1.376 .      A
C381  C382  1.383 .      A
C382  C383  1.386 .      A
C383  C384  1.374 .      A
C384  N70   1.365 .      A
C389  N71   1.400 .      A
C389  N72   1.386 .      A
N71   C390  1.321 1_556  A
C390  N71   1.321 1_554  A
C390  C391  1.340 .      A
C390  C395  1.356 .      A
C391  C392  1.354 .      A
C392  C393  1.376 .      A
C393  C394  1.396 .      A
C394  C395  1.369 .      A
C395  N72   1.353 1_554  A
N72   C395  1.353 1_556  A
C400  N73   1.413 .      A
C400  N74   1.391 .      A
N73   C401  1.345 .      A
C401  C402  1.346 .      A
C401  C406  1.362 .      A
C402  C403  1.383 .      A
C403  C404  1.394 .      A
C404  C405  1.386 .      A
C405  C406  1.367 .      A
C406  N74   1.335 .      A
C411  N75   1.415 .      A
C411  N76   1.417 .      A
N75   C412  1.344 .      A
C412  C413  1.366 .      A
C412  C417  1.382 .      A
C413  C414  1.375 .      A
C414  C415  1.388 .      A
C415  C416  1.392 .      A
C416  C417  1.373 .      A
C417  N76   1.359 .      A
C422  N77   1.420 .      A
C422  N78   1.410 .      A
N77   C423  1.354 .      A
C423  C424  1.373 .      A
C423  C428  1.381 .      A
C424  C425  1.380 .      A
C425  C426  1.392 .      A
C426  C427  1.386 .      A
C427  C428  1.371 .      A
C428  N78   1.350 .      A
C433  N79   1.418 1_655  A
C433  N80   1.387 .      A
N79   C433  1.418 1_455  A
N79   C434  1.339 1_455  A
C434  N79   1.339 1_655  A
C434  C435  1.369 1_655  A
C434  C439  1.374 .      A
C435  C434  1.369 1_455  A
C435  C436  1.369 1_455  A
C436  C435  1.369 1_655  A
C436  C437  1.384 .      A
C437  C438  1.374 .      A
C438  C439  1.346 .      A
C439  N80   1.343 .      A
C444  N81   1.385 .      A
C444  N82   1.388 .      A
N81   C445  1.346 .      A
C445  C446  1.362 .      A
C445  C450  1.356 .      A
C446  C447  1.373 .      A
C447  C448  1.385 .      A
C448  C449  1.386 .      A
C449  C450  1.369 .      A
C450  N82   1.339 .      A
C455  N83   1.413 .      A
C455  N84   1.410 .      A
N83   C456  1.343 .      A
C456  C457  1.352 .      A
C456  C461  1.354 .      A
C457  C458  1.362 .      A
C458  C459  1.368 .      A
C459  C460  1.355 .      A
C460  C461  1.350 .      A
C461  N84   1.326 .      A
C466  N85   1.392 .      A
C466  N86   1.402 .      A
N85   C467  1.350 .      A
C467  C468  1.347 1_545  A
C467  C472  1.369 1_545  A
C468  C467  1.347 1_565  A
C468  C469  1.379 .      A
C469  C470  1.388 .      A
C470  C471  1.386 .      A
C471  C472  1.372 .      A
C472  C467  1.369 1_565  A
C472  N86   1.345 1_565  A
N86   C472  1.345 1_545  A
C477  N87   1.405 .      A
C477  N88   1.372 .      A
N87   C478  1.345 .      A
C478  C479  1.370 .      A
C478  C483  1.357 .      A
C479  C480  1.383 .      A
C480  C481  1.394 .      A
C481  C482  1.388 .      A
C482  C483  1.374 .      A
C483  N88   1.347 .      A
C488  N89   1.400 .      A
C488  N90   1.394 .      A
N89   C489  1.361 .      A
C489  C490  1.366 .      A
C489  C494  1.370 .      A
C490  C491  1.383 .      A
C491  C492  1.373 .      A
C492  C493  1.352 .      A
C493  C494  1.361 .      A
C494  N90   1.333 .      A
C499  N91   1.393 .      A
C499  N92   1.393 .      A
N91   C500  1.347 .      A
C500  C501  1.368 .      A
C500  C505  1.371 .      A
C501  C502  1.385 .      A
C502  C503  1.393 .      A
C503  C504  1.385 .      A
C504  C505  1.367 .      A
C505  N92   1.346 .      A
C510  N93   1.384 .      A
C510  N94   1.384 .      A
N93   C511  1.350 .      A
C511  C512  1.370 .      A
C511  C516  1.375 .      A
C512  C513  1.384 .      A
C513  C514  1.396 .      A
C514  C515  1.388 .      A
C515  C516  1.371 .      A
C516  N94   1.351 .      A
C521  N95   1.402 .      A
C521  N96   1.372 .      A
N95   C522  1.327 1_655  A
C522  N95   1.327 1_455  A
C522  C523  1.366 .      A
C522  C527  1.358 1_455  A
C523  C524  1.353 .      A
C524  C525  1.365 1_554  A
C525  C524  1.365 1_556  A
C525  C526  1.419 .      A
C526  C527  1.385 1_456  A
C527  C522  1.358 1_655  A
C527  C526  1.385 1_654  A
C527  N96   1.378 .      A
C532  N97   1.376 .      A
C532  N98   1.394 .      A
N97   C533  1.359 .      A
C533  C534  1.359 .      A
C533  C538  1.354 .      A
C534  C535  1.371 .      A
C535  C536  1.367 .      A
C536  C537  1.390 .      A
C537  C538  1.383 .      A
C538  N98   1.347 .      A
C543  N99   1.391 .      A
C543  N100  1.396 1_455  A
N99   C544  1.351 1_455  A
C544  N99   1.351 1_655  A
C544  C545  1.372 1_554  A
C544  C549  1.350 .      A
C545  C544  1.372 1_556  A
C545  C546  1.378 .      A
C546  C547  1.385 .      A
C547  C548  1.381 1_556  A
C548  C547  1.381 1_554  A
C548  C549  1.361 .      A
C549  N100  1.334 .      A
N100  C543  1.396 1_655  A
C554  N101  1.402 1_655  A
C554  N102  1.413 .      A
N101  C554  1.402 1_455  A
N101  C555  1.325 .      A
C555  C556  1.341 .      A
C555  C560  1.340 1_455  A
C556  C557  1.349 .      A
C557  C558  1.361 .      A
C558  C559  1.380 .      A
C559  C560  1.353 1_455  A
C560  C555  1.340 1_655  A
C560  C559  1.353 1_655  A
C560  N102  1.341 .      A
C565  N103  1.390 .      A
C565  N104  1.392 .      A
N103  C566  1.337 .      A
C566  C567  1.357 .      A
C566  C571  1.372 .      A
C567  C568  1.371 .      A
C568  C569  1.382 .      A
C569  C570  1.392 .      A
C570  C571  1.377 .      A
C571  N104  1.366 .      A
C576  N105  1.406 1_655  A
C576  N106  1.408 .      A
N105  C576  1.406 1_455  A
N105  C577  1.340 1_455  A
C577  N105  1.340 1_655  A
C577  C578  1.361 1_655  A
C577  C582  1.355 .      A
C578  C577  1.361 1_455  A
C578  C579  1.375 1_455  A
C579  C578  1.375 1_655  A
C579  C580  1.374 .      A
C580  C581  1.370 .      A
C581  C582  1.346 .      A
C582  N106  1.340 .      A
C587  N107  1.400 .      A
C587  N108  1.409 .      A
N107  C588  1.316 .      A
C588  C589  1.359 .      A
C588  C593  1.349 .      A
C589  C590  1.312 .      A
C590  C591  1.337 .      A
C591  C592  1.392 .      A
C592  C593  1.371 .      A
C593  N108  1.359 .      A
C598  N109  1.403 1_655  A
C598  N110  1.401 .      A
N109  C598  1.403 1_455  A
N109  C599  1.354 1_455  A
C599  N109  1.354 1_655  A
C599  C600  1.351 1_655  A
C599  C604  1.370 .      A
C600  C599  1.351 1_455  A
C600  C601  1.383 .      A
C601  C602  1.384 1_455  A
C602  C601  1.384 1_655  A
C602  C603  1.381 .      A
C603  C604  1.361 .      A
C604  N110  1.336 .      A
C609  N111  1.389 1_565  A
C609  N112  1.402 .      A
N111  C609  1.389 1_545  A
N111  C610  1.372 .      A
C610  C611  1.385 .      A
C610  C615  1.375 .      A
C611  C612  1.382 .      A
C612  C613  1.383 .      A
C613  C614  1.382 .      A
C614  C615  1.368 .      A
C615  N112  1.336 1_545  A
N112  C615  1.336 1_565  A
C620  N113  1.397 .      A
C620  N114  1.383 1_655  A
N113  C621  1.341 .      A
C621  C622  1.341 .      A
C621  C626  1.362 .      A
C622  C623  1.378 .      A
C623  C624  1.370 .      A
C624  C625  1.371 1_655  A
C625  C624  1.371 1_455  A
C625  C626  1.356 1_455  A
C626  C625  1.356 1_655  A
C626  N114  1.332 1_655  A
N114  C620  1.383 1_455  A
N114  C626  1.332 1_455  A
C631  N115  1.407 .      A
C631  N116  1.379 .      A
N115  C632  1.335 .      A
C632  C633  1.360 .      A
C632  C637  1.368 .      A
C633  C634  1.381 .      A
C634  C635  1.385 .      A
C635  C636  1.386 .      A
C636  C637  1.369 .      A
C637  N116  1.358 .      A
C642  N117  1.389 .      A
C642  N118  1.411 .      A
N117  C643  1.353 .      A
C643  C644  1.367 .      A
C643  C648  1.364 .      A
C644  C645  1.384 .      A
C645  C646  1.394 .      A
C646  C647  1.386 .      A
C647  C648  1.374 .      A
C648  N118  1.346 .      A
C653  N119  1.404 .      A
C653  N120  1.393 .      A
N119  C654  1.357 .      A
C654  C655  1.372 .      A
C654  C659  1.376 .      A
C655  C656  1.385 .      A
C656  C657  1.393 .      A
C657  C658  1.381 .      A
C658  C659  1.370 .      A
C659  N120  1.341 .      A
C664  N121  1.401 .      A
C664  N122  1.387 .      A
N121  C665  1.354 .      A
C665  C666  1.366 .      A
C665  C670  1.353 .      A
C666  C667  1.400 .      A
C667  C668  1.398 .      A
C668  C669  1.343 .      A
C669  C670  1.328 .      A
C670  N122  1.311 .      A
C675  N123  1.377 .      A
C675  N124  1.375 .      A
N123  C676  1.366 .      A
C676  C677  1.378 .      A
C676  C681  1.366 .      A
C677  C678  1.382 .      A
C678  C679  1.384 .      A
C679  C680  1.375 .      A
C680  C681  1.367 .      A
C681  N124  1.341 .      A
C686  N125  1.415 .      A
C686  N126  1.378 .      A
N125  C687  1.347 .      A
C687  C688  1.351 .      A
C687  C692  1.350 .      A
C688  C689  1.359 .      A
C689  C690  1.368 .      A
C690  C691  1.343 .      A
C691  C692  1.339 .      A
C692  N126  1.319 .      A
C697  N127  1.386 .      A
C697  N128  1.394 .      A
N127  C698  1.338 .      A
C698  C699  1.357 .      A
C698  C703  1.345 .      A
C699  C700  1.376 .      A
C700  C701  1.376 .      A
C701  C702  1.361 .      A
C702  C703  1.361 .      A
C703  N128  1.330 .      A
C708  N129  1.372 .      A
C708  N130  1.392 .      A
N129  C709  1.344 .      A
C709  C710  1.369 .      A
C709  C714  1.353 .      A
C710  C711  1.376 1_655  A
C711  C710  1.376 1_455  A
C711  C712  1.373 .      A
C712  C713  1.377 .      A
C713  C714  1.360 1_455  A
C714  C713  1.360 1_655  A
C714  N130  1.342 .      A
C719  N131  1.403 .      A
C719  N132  1.384 .      A
N131  C720  1.343 .      A
C720  C721  1.372 .      A
C720  C725  1.367 .      A
C721  C722  1.381 .      A
C722  C723  1.391 .      A
C723  C724  1.390 .      A
C724  C725  1.367 .      A
C725  N132  1.358 .      A
C730  N133  1.424 .      A
C730  N134  1.403 .      A
N133  C731  1.335 .      A
C731  C732  1.363 .      A
C731  C736  1.355 .      A
C732  C733  1.357 .      A
C733  C734  1.364 .      A
C734  C735  1.393 .      A
C735  C736  1.379 .      A
C736  N134  1.367 .      A
C741  N135  1.387 .      A
C741  N136  1.379 .      A
N135  C742  1.349 .      A
C742  C743  1.370 .      A
C742  C747  1.369 .      A
C743  C744  1.386 .      A
C744  C745  1.397 .      A
C745  C746  1.388 .      A
C746  C747  1.373 .      A
C747  N136  1.345 .      A
C11   O1    1.219 .      D
C22   O3    1.214 .      D
C33   O5    1.217 .      D
C44   O7    1.211 .      D
C55   O9    1.213 .      D
C66   O11   1.209 .      D
C77   O13   1.219 .      D
C88   O15   1.219 .      D
C99   O17   1.219 .      D
C110  O19   1.219 .      D
C121  O21   1.219 .      D
C132  O23   1.218 .      D
C143  O25   1.211 .      D
C154  O27   1.219 .      D
C165  O29   1.219 .      D
C176  O31   1.214 .      D
C187  O33   1.219 .      D
C198  O35   1.218 .      D
C209  O37   1.219 .      D
C220  O39   1.218 .      D
C231  O41   1.219 .      D
C242  O43   1.219 .      D
C253  O45   1.204 .      D
C264  O47   1.219 .      D
C275  O49   1.219 .      D
C286  O51   1.218 .      D
C297  O53   1.219 .      D
C308  O55   1.211 .      D
C319  O57   1.219 .      D
C330  O59   1.218 .      D
C341  O61   1.212 .      D
C352  O63   1.219 .      D
C363  O65   1.218 .      D
C374  O67   1.219 .      D
C385  O69   1.219 .      D
C396  O71   1.212 .      D
C407  O73   1.219 .      D
C418  O75   1.219 .      D
C429  O77   1.219 .      D
C440  O79   1.217 .      D
C451  O81   1.217 .      D
C462  O83   1.214 .      D
C473  O85   1.219 .      D
C484  O87   1.219 .      D
C495  O89   1.214 .      D
C506  O91   1.219 .      D
C517  O93   1.219 .      D
C528  O95   1.220 .      D
C539  O97   1.219 .      D
C550  O99   1.218 .      D
C561  O101  1.216 .      D
C572  O103  1.219 .      D
C583  O105  1.210 .      D
C594  O107  1.209 1_655  D
O107  C594  1.209 1_455  D
C605  O109  1.218 .      D
C616  O111  1.219 .      D
C627  O113  1.213 1_455  D
O113  C627  1.213 1_655  D
C638  O115  1.219 .      D
C649  O117  1.219 .      D
C660  O119  1.219 .      D
C671  O121  1.210 .      D
C682  O123  1.218 .      D
C693  O125  1.203 .      D
C704  O127  1.217 1_655  D
O127  C704  1.217 1_455  D
C715  O129  1.215 .      D
C726  O131  1.219 .      D
C737  O133  1.216 .      D
C748  O135  1.219 .      D
