data_str_m1_o12216_SEW
_audit_creation_date              2015-10-01T06:25:57-0700
_symmetry_space_group_name_H-M    P1
_symmetry_Int_Tables_number       1
_space_group_crystal_system       triclinic
loop_
_symmetry_equiv_pos_as_xyz
  x,y,z
_cell_length_a                    50.9822123
_cell_length_b                    24.5486315
_cell_length_c                    29.2800015
_cell_angle_alpha                 91.6545971
_cell_angle_beta                  90.1787047
_cell_angle_gamma                 89.7908389
_cell_volume                      36629.507352

loop_
_atom_site_label
_atom_site_type_symbol
_atom_site_description
_atom_site_fract_x
_atom_site_fract_y
_atom_site_fract_z
_atom_type_partial_charge
Zn1   Zn    Zn3+2 0.717425 0.948271 0.258739 0.000000
Zn2   Zn    Zn3+2 0.595877 0.872835 0.276787 0.000000
Zn3   Zn    Zn3+2 0.118383 0.952278 0.261813 0.000000
Zn4   Zn    Zn3+2 0.537175 0.469870 0.403538 0.000000
Zn5   Zn    Zn3+2 0.318975 0.739677 0.404302 0.000000
Zn6   Zn    Zn3+2 0.488168 0.862259 0.596789 0.000000
Zn7   Zn    Zn3+2 0.847965 0.951411 0.592513 0.000000
Zn8   Zn    Zn3+2 0.485423 0.101810 0.513090 0.000000
Zn9   Zn    Zn3+2 0.531052 0.096716 0.301143 0.000000
Zn10  Zn    Zn3+2 0.429161 0.731231 0.301061 0.000000
Zn11  Zn    Zn3+2 0.920626 0.839042 0.265513 0.000000
Zn12  Zn    Zn3+2 0.915530 0.583911 0.183809 0.000000
Zn13  Zn    Zn3+2 0.736855 0.800784 0.076635 0.000000
Zn14  Zn    Zn3+2 0.855010 0.828310 0.781529 0.000000
Zn15  Zn    Zn3+2 0.865248 0.345266 0.779224 0.000000
Zn16  Zn    Zn3+2 0.983024 0.833787 0.779142 0.000000
Zn17  Zn    Zn3+2 0.362873 0.352173 0.569973 0.000000
Zn18  Zn    Zn3+2 0.986286 0.219125 0.587144 0.000000
Zn19  Zn    Zn3+2 0.491550 0.354199 0.572813 0.000000
Zn20  Zn    Zn3+2 0.319948 0.475741 0.398758 0.000000
Zn21  Zn    Zn3+2 0.992061 0.347887 0.770396 0.000000
Zn22  Zn    Zn3+2 0.812963 0.214886 0.952405 0.000000
Zn23  Zn    Zn3+2 0.028939 0.964485 0.949934 0.000000
Zn24  Zn    Zn3+2 0.031564 0.222012 0.943336 0.000000
Zn25  Zn    Zn3+2 0.809093 0.956886 0.960310 0.000000
Zn26  Zn    Zn3+2 0.824569 0.210827 0.381574 0.000000
Zn27  Zn    Zn3+2 0.016626 0.960293 0.385260 0.000000
Zn28  Zn    Zn3+2 0.216801 0.714099 0.096110 0.000000
Zn29  Zn    Zn3+2 0.486295 0.485761 0.765909 0.000000
Zn30  Zn    Zn3+2 0.421593 0.093049 0.175954 0.000000
Zn31  Zn    Zn3+2 0.723579 0.219995 0.255322 0.000000
Zn32  Zn    Zn3+2 0.419986 0.835277 0.102645 0.000000
Zn33  Zn    Zn3+2 0.424198 0.346314 0.089274 0.000000
Zn34  Zn    Zn3+2 0.924494 0.208540 0.071468 0.000000
Zn35  Zn    Zn3+2 0.922572 0.333977 0.266264 0.000000
Zn36  Zn    Zn3+2 0.430888 0.477587 0.287661 0.000000
Zn37  Zn    Zn3+2 0.920685 0.960346 0.067847 0.000000
Zn38  Zn    Zn3+2 0.024503 0.588913 0.056007 0.000000
Zn39  Zn    Zn3+2 0.807087 0.582112 0.057609 0.000000
Zn40  Zn    Zn3+2 0.123425 0.224052 0.255504 0.000000
Zn41  Zn    Zn3+2 0.607260 0.310251 0.274910 0.000000
Zn42  Zn    Zn3+2 0.361287 0.731248 0.771635 0.000000
Zn43  Zn    Zn3+2 0.618399 0.456050 0.092304 0.000000
Zn44  Zn    Zn3+2 0.620163 0.722944 0.095676 0.000000
Zn45  Zn    Zn3+2 0.814995 0.944786 0.381822 0.000000
Zn46  Zn    Zn3+2 0.859562 0.207709 0.590519 0.000000
Zn47  Zn    Zn3+2 0.860861 0.591844 0.849034 0.000000
Zn48  Zn    Zn3+2 0.311368 0.096668 0.298728 0.000000
Zn49  Zn    Zn3+2 0.360921 0.103912 0.511581 0.000000
Zn50  Zn    Zn3+2 0.988774 0.595675 0.838997 0.000000
Zn51  Zn    Zn3+2 0.974896 0.968535 0.590692 0.000000
Zn52  Zn    Zn3+2 0.360387 0.851385 0.586111 0.000000
Zn53  Zn    Zn3+2 0.486888 0.742546 0.776575 0.000000
Zn54  Zn    Zn3+2 0.362563 0.476720 0.770560 0.000000
Zn55  Zn    Zn3+2 0.322899 0.723127 0.984480 0.000000
Zn56  Zn    Zn3+2 0.519039 0.459803 0.967257 0.000000
Zn57  Zn    Zn3+2 0.514868 0.720613 0.983908 0.000000
Zn58  Zn    Zn3+2 0.326073 0.460174 0.974714 0.000000
Zn59  Zn    Zn3+2 0.102366 0.375416 0.074624 0.000000
Zn60  Zn    Zn3+2 0.238424 0.875975 0.278368 0.000000
Zn61  Zn    Zn3+2 0.734703 0.366362 0.073767 0.000000
Zn62  Zn    Zn3+2 0.020215 0.224054 0.378683 0.000000
Zn63  Zn    Zn3+2 0.241419 0.318593 0.267507 0.000000
Zn64  Zn    Zn3+2 0.219380 0.450305 0.083692 0.000000
Zn65  Zn    Zn3+2 0.099506 0.800637 0.077661 0.000000
Zn66  Zn    Zn3+2 0.531708 0.730155 0.427011 0.000000
C1    C     C_3   0.679850 0.987764 0.434212 0.000000
C2    C     C_R   0.706539 0.975485 0.416132 0.000000
C3    C     C_R   0.727511 0.972121 0.446035 0.000000
C4    C     C_R   0.752178 0.958017 0.430139 0.000000
C5    C     C_R   0.755812 0.949902 0.383936 0.000000
N1    N     N_R   0.777040 0.929338 0.361736 0.000000
C6    C     C_R   0.766600 0.911338 0.320944 0.000000
N2    N     N_R   0.741811 0.932992 0.313509 0.000000
C7    C     C_R   0.735108 0.952428 0.355071 0.000000
C8    C     C_R   0.710305 0.964952 0.370019 0.000000
S1    S     S_3+2 0.771219 0.839086 0.310049 0.000000
O1    O     O_2   0.799886 0.821338 0.314967 0.000000
O2    O     O_2   0.764172 0.817446 0.261934 0.000000
O3    O     O_3   0.755302 0.796595 0.346146 0.000000
H1    H     H_    0.674444 0.956717 0.459257 0.000000
H2    H     H_    0.665250 0.987031 0.406065 0.000000
H3    H     H_    0.679820 0.028682 0.451283 0.000000
H4    H     H_    0.724395 0.978342 0.482316 0.000000
H5    H     H_    0.767271 0.950442 0.454453 0.000000
H6    H     H_    0.693994 0.964267 0.346851 0.000000
H7    H     H_    0.748066 0.767431 0.325783 0.000000
C9    C     C_3   0.528230 0.939326 0.481325 0.000000
C10   C     C_R   0.542289 0.911210 0.443236 0.000000
C11   C     C_R   0.566389 0.930776 0.430688 0.000000
C12   C     C_R   0.578998 0.909241 0.392631 0.000000
C13   C     C_R   0.567612 0.866800 0.369391 0.000000
N3    N     N_R   0.580173 0.835794 0.337739 0.000000
C14   C     C_R   0.574625 0.784142 0.352926 0.000000
N4    N     N_R   0.555513 0.782814 0.387170 0.000000
C15   C     C_R   0.551009 0.836384 0.394446 0.000000
C16   C     C_R   0.534637 0.860663 0.426182 0.000000
S2    S     S_3+2 0.595918 0.728683 0.338392 0.000000
O4    O     O_2   0.609622 0.739755 0.293151 0.000000
O5    O     O_2   0.582209 0.674443 0.327667 0.000000
O6    O     O_3   0.621641 0.714541 0.373555 0.000000
H8    H     H_    0.542404 0.955139 0.507106 0.000000
H9    H     H_    0.514560 0.910968 0.497286 0.000000
H10   H     H_    0.517430 0.974403 0.468271 0.000000
H11   H     H_    0.575527 0.962493 0.451398 0.000000
H12   H     H_    0.599091 0.918899 0.386361 0.000000
H13   H     H_    0.518220 0.839333 0.440298 0.000000
H14   H     H_    0.636791 0.709861 0.352775 0.000000
C17   C     C_3   0.549631 0.960123 0.102609 0.000000
C18   C     C_R   0.554438 0.979252 0.150591 0.000000
C19   C     C_R   0.546325 0.031691 0.160885 0.000000
C20   C     C_R   0.543169 0.048169 0.205456 0.000000
C21   C     C_R   0.551483 0.014405 0.238440 0.000000
N5    N     N_R   0.551763 0.027213 0.282683 0.000000
C22   C     C_R   0.568382 0.988232 0.299783 0.000000
N6    N     N_R   0.573891 0.945843 0.268455 0.000000
C23   C     C_R   0.563104 0.965462 0.229583 0.000000
C24   C     C_R   0.563377 0.945137 0.185275 0.000000
S3    S     S_3+2 0.593197 0.013149 0.338340 0.000000
O7    O     O_2   0.603366 0.066502 0.319401 0.000000
O8    O     O_2   0.618681 0.980027 0.337907 0.000000
O9    O     O_3   0.586887 0.029633 0.394389 0.000000
H15   H     H_    0.529730 0.973098 0.092168 0.000000
H16   H     H_    0.550199 0.915451 0.099763 0.000000
H17   H     H_    0.564109 0.978549 0.079521 0.000000
H18   H     H_    0.539862 0.057880 0.133990 0.000000
H19   H     H_    0.534988 0.087232 0.214385 0.000000
H20   H     H_    0.568141 0.903137 0.178666 0.000000
H21   H     H_    0.567529 0.028333 0.396561 0.000000
C25   C     C_3   0.660794 0.789688 0.416884 0.000000
C26   C     C_R   0.665772 0.811909 0.370979 0.000000
C27   C     C_R   0.691338 0.814433 0.355669 0.000000
C28   C     C_R   0.697283 0.845588 0.318743 0.000000
C29   C     C_R   0.677444 0.874212 0.299117 0.000000
N7    N     N_R   0.679712 0.918453 0.273390 0.000000
C30   C     C_R   0.653675 0.931958 0.265607 0.000000
N8    N     N_R   0.635850 0.895205 0.283715 0.000000
C31   C     C_R   0.651893 0.862975 0.307807 0.000000
C32   C     C_R   0.645505 0.833144 0.345187 0.000000
S4    S     S_3+2 0.645091 0.997623 0.242769 0.000000
O10   O     O_2   0.648993 0.043000 0.278791 0.000000
O11   O     O_2   0.615791 0.004261 0.233061 0.000000
O12   O     O_3   0.660142 0.022221 0.195341 0.000000
H22   H     H_    0.667469 0.746738 0.417334 0.000000
H23   H     H_    0.639677 0.792573 0.425569 0.000000
H24   H     H_    0.672079 0.813756 0.442793 0.000000
H25   H     H_    0.706832 0.795587 0.374914 0.000000
H26   H     H_    0.716967 0.849436 0.307219 0.000000
H27   H     H_    0.625911 0.832584 0.357900 0.000000
H28   H     H_    0.645722 0.027679 0.173206 0.000000
C33   C     C_3   0.011736 0.917649 0.220972 0.000000
C34   C     C_R   0.034712 0.914386 0.191110 0.000000
C35   C     C_R   0.032572 0.883742 0.151522 0.000000
C36   C     C_R   0.053811 0.864042 0.128903 0.000000
C37   C     C_R   0.077151 0.877412 0.147182 0.000000
N9    N     N_R   0.099445 0.852860 0.135984 0.000000
C38   C     C_R   0.115602 0.871478 0.170793 0.000000
N10   N     N_R   0.104436 0.909056 0.201260 0.000000
C39   C     C_R   0.079958 0.911577 0.184634 0.000000
C40   C     C_R   0.058700 0.933406 0.206211 0.000000
S5    S     S_3+2 0.139193 0.828886 0.190528 0.000000
O13   O     O_2   0.133088 0.822421 0.241125 0.000000
O14   O     O_2   0.166778 0.852955 0.190310 0.000000
O15   O     O_3   0.141369 0.764092 0.170159 0.000000
H29   H     H_    0.994950 0.938893 0.205466 0.000000
H30   H     H_    0.018665 0.937410 0.252689 0.000000
H31   H     H_    0.005276 0.875886 0.227844 0.000000
H32   H     H_    0.014109 0.873329 0.138991 0.000000
H33   H     H_    0.051988 0.836053 0.100009 0.000000
H34   H     H_    0.060917 0.957937 0.236924 0.000000
H35   H     H_    0.159990 0.762597 0.161245 0.000000
C41   C     C_3   0.121866 0.796589 0.397961 0.000000
C42   C     C_R   0.142959 0.821121 0.370352 0.000000
C43   C     C_R   0.168678 0.806029 0.377758 0.000000
C44   C     C_R   0.188462 0.827639 0.352071 0.000000
C45   C     C_R   0.182525 0.868077 0.321876 0.000000
N11   N     N_R   0.198450 0.890510 0.290643 0.000000
C46   C     C_R   0.181223 0.922868 0.266470 0.000000
N12   N     N_R   0.155257 0.919420 0.280587 0.000000
C47   C     C_R   0.157112 0.883490 0.314829 0.000000
C48   C     C_R   0.136963 0.857682 0.336810 0.000000
S6    S     S_3+2 0.192270 0.965161 0.220929 0.000000
O16   O     O_2   0.220959 0.980548 0.228782 0.000000
O17   O     O_2   0.180171 0.022368 0.222814 0.000000
O18   O     O_3   0.192408 0.943697 0.164529 0.000000
H36   H     H_    0.120288 0.752484 0.389176 0.000000
H37   H     H_    0.102944 0.817131 0.391466 0.000000
H38   H     H_    0.126690 0.802104 0.434756 0.000000
H39   H     H_    0.173239 0.775583 0.402537 0.000000
H40   H     H_    0.207891 0.811806 0.355829 0.000000
H41   H     H_    0.116968 0.863268 0.326930 0.000000
H42   H     H_    0.173912 0.943800 0.154641 0.000000
C49   C     C_3   0.160645 0.110565 0.086760 0.000000
C50   C     C_R   0.147970 0.091739 0.129434 0.000000
C51   C     C_R   0.143719 0.036941 0.132984 0.000000
C52   C     C_R   0.132390 0.016943 0.171390 0.000000
C53   C     C_R   0.125004 0.052426 0.205877 0.000000
N13   N     N_R   0.121772 0.038725 0.249403 0.000000
C54   C     C_R   0.124692 0.089391 0.272173 0.000000
N14   N     N_R   0.125733 0.133905 0.243248 0.000000
C55   C     C_R   0.128271 0.107358 0.202404 0.000000
C56   C     C_R   0.141324 0.126667 0.165942 0.000000
S7    S     S_3+2 0.144751 0.091341 0.322450 0.000000
O19   O     O_2   0.162440 0.040705 0.321300 0.000000
O20   O     O_2   0.130309 0.085194 0.367759 0.000000
O21   O     O_3   0.167190 0.142210 0.330998 0.000000
H43   H     H_    0.166115 0.075242 0.064360 0.000000
H44   H     H_    0.178704 0.133705 0.094476 0.000000
H45   H     H_    0.146700 0.135594 0.067322 0.000000
H46   H     H_    0.151834 0.009228 0.107735 0.000000
H47   H     H_    0.133684 0.974448 0.176678 0.000000
H48   H     H_    0.146386 0.168489 0.168003 0.000000
H49   H     H_    0.174067 0.136495 0.362171 0.000000
C57   C     C_3   0.636816 0.653532 0.459939 0.000000
C58   C     C_R   0.613576 0.629017 0.436497 0.000000
C59   C     C_R   0.616087 0.578563 0.414493 0.000000
C60   C     C_R   0.594103 0.551700 0.398354 0.000000
C61   C     C_R   0.570267 0.576430 0.404873 0.000000
N15   N     N_R   0.546652 0.552463 0.405722 0.000000
C62   C     C_R   0.530346 0.595219 0.417766 0.000000
N16   N     N_R   0.542908 0.645483 0.422554 0.000000
C63   C     C_R   0.568262 0.630043 0.418209 0.000000
C64   C     C_R   0.589649 0.656215 0.436716 0.000000
S8    S     S_3+2 0.500720 0.579351 0.445949 0.000000
O22   O     O_2   0.496563 0.518075 0.445153 0.000000
O23   O     O_2   0.475800 0.596006 0.421268 0.000000
O24   O     O_3   0.497323 0.595685 0.502557 0.000000
H50   H     H_    0.642858 0.627348 0.488385 0.000000
H51   H     H_    0.632022 0.694881 0.473768 0.000000
H52   H     H_    0.653196 0.656021 0.435305 0.000000
H53   H     H_    0.635039 0.558797 0.412308 0.000000
H54   H     H_    0.595742 0.512388 0.381831 0.000000
H55   H     H_    0.587387 0.694179 0.454863 0.000000
H56   H     H_    0.509439 0.570615 0.517967 0.000000
C65   C     C_3   0.660839 0.364353 0.454272 0.000000
C66   C     C_R   0.635391 0.380434 0.433527 0.000000
C67   C     C_R   0.618899 0.416414 0.456807 0.000000
C68   C     C_R   0.595246 0.430726 0.437750 0.000000
C69   C     C_R   0.588817 0.410195 0.395274 0.000000
N17   N     N_R   0.566278 0.418774 0.372644 0.000000
C70   C     C_R   0.569593 0.385363 0.333817 0.000000
N18   N     N_R   0.593982 0.360834 0.330401 0.000000
C71   C     C_R   0.605086 0.375832 0.371208 0.000000
C72   C     C_R   0.628418 0.359244 0.390883 0.000000
S9    S     S_3+2 0.542561 0.356444 0.302858 0.000000
O25   O     O_2   0.538598 0.378256 0.255197 0.000000
O26   O     O_2   0.516684 0.372043 0.325239 0.000000
O27   O     O_3   0.539471 0.287618 0.297163 0.000000
H57   H     H_    0.676984 0.372283 0.430062 0.000000
H58   H     H_    0.660363 0.320442 0.461858 0.000000
H59   H     H_    0.664336 0.388014 0.486511 0.000000
H60   H     H_    0.624233 0.433051 0.490117 0.000000
H61   H     H_    0.582420 0.458515 0.455173 0.000000
H62   H     H_    0.641669 0.331088 0.374437 0.000000
H63   H     H_    0.541123 0.274827 0.328605 0.000000
C73   C     C_3   0.351161 0.948221 0.340637 0.000000
C74   C     C_R   0.363006 0.893954 0.339398 0.000000
C75   C     C_R   0.389541 0.889444 0.329930 0.000000
C76   C     C_R   0.400739 0.838768 0.324468 0.000000
C77   C     C_R   0.385235 0.794608 0.332110 0.000000
N19   N     N_R   0.393523 0.743263 0.333508 0.000000
C78   C     C_R   0.372597 0.717763 0.354219 0.000000
N20   N     N_R   0.352054 0.751843 0.364757 0.000000
C79   C     C_R   0.360136 0.799238 0.347326 0.000000
C80   C     C_R   0.347788 0.848786 0.348121 0.000000
S10   S     S_3+2 0.371115 0.648896 0.370712 0.000000
O28   O     O_2   0.393198 0.610916 0.354882 0.000000
O29   O     O_2   0.347739 0.620665 0.348362 0.000000
O30   O     O_3   0.367396 0.639822 0.427844 0.000000
H64   H     H_    0.355116 0.967686 0.374338 0.000000
H65   H     H_    0.329978 0.944371 0.333506 0.000000
H66   H     H_    0.360523 0.971923 0.313830 0.000000
H67   H     H_    0.401165 0.925432 0.324735 0.000000
H68   H     H_    0.421317 0.834295 0.317114 0.000000
H69   H     H_    0.327560 0.853198 0.357966 0.000000
H70   H     H_    0.367473 0.677318 0.441245 0.000000
C81   C     C_3   0.217252 0.926850 0.460241 0.000000
C82   C     C_R   0.238913 0.895545 0.437796 0.000000
C83   C     C_R   0.259456 0.877303 0.463792 0.000000
C84   C     C_R   0.277969 0.843099 0.444517 0.000000
C85   C     C_R   0.274791 0.824806 0.400061 0.000000
N21   N     N_R   0.289518 0.788682 0.375903 0.000000
C86   C     C_R   0.280372 0.795343 0.331702 0.000000
N22   N     N_R   0.259475 0.832161 0.328585 0.000000
C87   C     C_R   0.256715 0.848554 0.372871 0.000000
C88   C     C_R   0.238642 0.884112 0.391386 0.000000
S11   S     S_3+2 0.298102 0.764545 0.284315 0.000000
O31   O     O_2   0.315432 0.718389 0.301568 0.000000
O32   O     O_2   0.319628 0.802006 0.268046 0.000000
O33   O     O_3   0.284704 0.736980 0.235460 0.000000
H71   H     H_    0.208960 0.902425 0.487968 0.000000
H72   H     H_    0.201459 0.935216 0.435302 0.000000
H73   H     H_    0.224989 0.965570 0.475101 0.000000
H74   H     H_    0.260969 0.889216 0.499359 0.000000
H75   H     H_    0.294766 0.834421 0.464148 0.000000
H76   H     H_    0.223248 0.898832 0.371012 0.000000
H77   H     H_    0.265969 0.745616 0.238323 0.000000
C89   C     C_3   0.248701 0.652351 0.280138 0.000000
C90   C     C_R   0.268387 0.628761 0.308701 0.000000
C91   C     C_R   0.276251 0.576433 0.299492 0.000000
C92   C     C_R   0.291528 0.549884 0.330246 0.000000
C93   C     C_R   0.298532 0.578425 0.368479 0.000000
N23   N     N_R   0.311202 0.559467 0.404422 0.000000
C94   C     C_R   0.315678 0.607591 0.429943 0.000000
N24   N     N_R   0.308398 0.654715 0.407489 0.000000
C95   C     C_R   0.295160 0.633055 0.372132 0.000000
C96   C     C_R   0.277777 0.658277 0.345396 0.000000
S12   S     S_3+2 0.320672 0.608561 0.490807 0.000000
O34   O     O_2   0.327334 0.552434 0.508635 0.000000
O35   O     O_2   0.294660 0.618741 0.515893 0.000000
O36   O     O_3   0.342703 0.651785 0.517110 0.000000
H78   H     H_    0.253174 0.643781 0.243771 0.000000
H79   H     H_    0.249645 0.695840 0.287796 0.000000
H80   H     H_    0.229904 0.635563 0.291356 0.000000
H81   H     H_    0.269208 0.556214 0.269194 0.000000
H82   H     H_    0.297810 0.508886 0.324028 0.000000
H83   H     H_    0.270410 0.697845 0.354758 0.000000
H84   H     H_    0.350574 0.629910 0.541497 0.000000
C97   C     C_3   0.562486 0.996217 0.694714 0.000000
C98   C     C_R   0.544581 0.006949 0.655744 0.000000
C99   C     C_R   0.542828 0.058893 0.638932 0.000000
C100  C     C_R   0.526065 0.069612 0.603168 0.000000
C101  C     C_R   0.511908 0.027784 0.583414 0.000000
N25   N     N_R   0.493260 0.030925 0.550639 0.000000
C102  C     C_R   0.481465 0.980049 0.552986 0.000000
N26   N     N_R   0.493679 0.945111 0.582634 0.000000
C103  C     C_R   0.512499 0.977282 0.601568 0.000000
C104  C     C_R   0.528887 0.965942 0.637676 0.000000
S13   S     S_3+2 0.451989 0.959883 0.523729 0.000000
O37   O     O_2   0.432044 0.002725 0.510588 0.000000
O38   O     O_2   0.434353 0.927699 0.553864 0.000000
O39   O     O_3   0.455272 0.919864 0.476262 0.000000
H85   H     H_    0.582935 0.005240 0.684679 0.000000
H86   H     H_    0.561174 0.952986 0.704415 0.000000
H87   H     H_    0.556895 0.022786 0.724403 0.000000
H88   H     H_    0.554014 0.091687 0.654758 0.000000
H89   H     H_    0.522751 0.110578 0.594179 0.000000
H90   H     H_    0.529663 0.925930 0.651654 0.000000
H91   H     H_    0.474337 0.917088 0.471221 0.000000
C105  C     C_3   0.461119 0.942247 0.316246 0.000000
C106  C     C_R   0.474049 0.975941 0.351998 0.000000
C107  C     C_R   0.463091 0.978163 0.394666 0.000000
C108  C     C_R   0.473003 0.013140 0.427937 0.000000
C109  C     C_R   0.493114 0.045361 0.418190 0.000000
N27   N     N_R   0.500783 0.088642 0.443761 0.000000
C110  C     C_R   0.516502 0.114400 0.412501 0.000000
N28   N     N_R   0.518128 0.088781 0.369466 0.000000
C111  C     C_R   0.503302 0.045013 0.375483 0.000000
C112  C     C_R   0.494597 0.009882 0.341919 0.000000
S14   S     S_3+2 0.523906 0.182547 0.421919 0.000000
O40   O     O_2   0.503032 0.201845 0.455836 0.000000
O41   O     O_2   0.516741 0.216014 0.380644 0.000000
O42   O     O_3   0.552682 0.208159 0.443499 0.000000
H92   H     H_    0.452131 0.906344 0.331880 0.000000
H93   H     H_    0.476099 0.928633 0.291769 0.000000
H94   H     H_    0.445784 0.966582 0.299248 0.000000
H95   H     H_    0.445473 0.955358 0.400677 0.000000
H96   H     H_    0.463349 0.022645 0.458644 0.000000
H97   H     H_    0.502315 0.012171 0.308273 0.000000
H98   H     H_    0.557711 0.236625 0.421987 0.000000
C113  C     C_3   0.990244 0.592601 0.313256 0.000000
C114  C     C_R   0.976225 0.635800 0.288238 0.000000
C115  C     C_R   0.983686 0.689720 0.293584 0.000000
C116  C     C_R   0.967388 0.731559 0.279278 0.000000
C117  C     C_R   0.943643 0.717803 0.260451 0.000000
N29   N     N_R   0.922829 0.750004 0.249789 0.000000
C118  C     C_R   0.906749 0.711297 0.227324 0.000000
N30   N     N_R   0.917650 0.659116 0.222714 0.000000
C119  C     C_R   0.939528 0.664759 0.247115 0.000000
C120  C     C_R   0.954746 0.622886 0.261745 0.000000
S15   S     S_3+2 0.872663 0.722247 0.216384 0.000000
O43   O     O_2   0.858167 0.667608 0.213762 0.000000
O44   O     O_2   0.867014 0.743525 0.168747 0.000000
O45   O     O_3   0.854191 0.761204 0.253708 0.000000
H99   H     H_    0.011148 0.590672 0.303973 0.000000
H100  H     H_    0.981132 0.552511 0.305513 0.000000
H101  H     H_    0.988737 0.602158 0.350376 0.000000
H102  H     H_    0.001945 0.698559 0.310672 0.000000
H103  H     H_    0.972994 0.773266 0.284280 0.000000
H104  H     H_    0.948499 0.581502 0.256337 0.000000
H105  H     H_    0.845528 0.734531 0.273349 0.000000
C121  C     C_3   0.821665 0.894301 0.245522 0.000000
C122  C     C_R   0.802308 0.894155 0.208559 0.000000
C123  C     C_R   0.806340 0.861743 0.169915 0.000000
C124  C     C_R   0.786150 0.851432 0.139870 0.000000
C125  C     C_R   0.761992 0.863378 0.155810 0.000000
N31   N     N_R   0.739374 0.844765 0.139000 0.000000
C126  C     C_R   0.721890 0.868460 0.169646 0.000000
N32   N     N_R   0.732766 0.901376 0.203389 0.000000
C127  C     C_R   0.758174 0.897241 0.192839 0.000000
C128  C     C_R   0.778611 0.918844 0.216289 0.000000
S16   S     S_3+2 0.688808 0.870658 0.159732 0.000000
O46   O     O_2   0.683088 0.886004 0.110595 0.000000
O47   O     O_2   0.678413 0.921670 0.183737 0.000000
O48   O     O_3   0.668650 0.819202 0.176237 0.000000
H106  H     H_    0.826635 0.851812 0.253416 0.000000
H107  H     H_    0.813960 0.916540 0.275975 0.000000
H108  H     H_    0.839377 0.913708 0.234259 0.000000
H109  H     H_    0.824614 0.841112 0.165177 0.000000
H110  H     H_    0.788302 0.828358 0.108396 0.000000
H111  H     H_    0.775591 0.946659 0.244257 0.000000
H112  H     H_    0.666162 0.825841 0.209404 0.000000
C129  C     C_3   0.824485 0.683946 0.624190 0.000000
C130  C     C_R   0.837055 0.738310 0.630990 0.000000
C131  C     C_R   0.846010 0.764898 0.593155 0.000000
C132  C     C_R   0.851364 0.819729 0.596806 0.000000
C133  C     C_R   0.848641 0.845210 0.638609 0.000000
N33   N     N_R   0.841588 0.897434 0.646480 0.000000
C134  C     C_R   0.835370 0.897440 0.692840 0.000000
N34   N     N_R   0.843611 0.850469 0.713832 0.000000
C135  C     C_R   0.847281 0.816565 0.677452 0.000000
C136  C     C_R   0.838146 0.763925 0.673903 0.000000
S17   S     S_3+2 0.802937 0.918972 0.708643 0.000000
O49   O     O_2   0.799851 0.979159 0.722140 0.000000
O50   O     O_2   0.794508 0.892055 0.752894 0.000000
O51   O     O_3   0.777755 0.904279 0.671317 0.000000
H113  H     H_    0.808665 0.686876 0.598365 0.000000
H114  H     H_    0.815755 0.670343 0.656549 0.000000
H115  H     H_    0.839276 0.653838 0.611734 0.000000
H116  H     H_    0.845328 0.744878 0.559808 0.000000
H117  H     H_    0.853555 0.842525 0.566811 0.000000
H118  H     H_    0.829782 0.744985 0.703097 0.000000
H119  H     H_    0.773664 0.865534 0.676403 0.000000
C137  C     C_3   0.877495 0.729178 0.928879 0.000000
C138  C     C_R   0.895192 0.760782 0.899490 0.000000
C139  C     C_R   0.921783 0.757022 0.905275 0.000000
C140  C     C_R   0.938515 0.768311 0.869718 0.000000
C141  C     C_R   0.929290 0.799378 0.834957 0.000000
N35   N     N_R   0.941837 0.825109 0.800639 0.000000
C142  C     C_R   0.920371 0.843800 0.776869 0.000000
N36   N     N_R   0.896019 0.829285 0.792953 0.000000
C143  C     C_R   0.902880 0.804532 0.830859 0.000000
C144  C     C_R   0.885822 0.786014 0.861893 0.000000
S18   S     S_3+2 0.924171 0.897754 0.743007 0.000000
O52   O     O_2   0.949688 0.924922 0.757888 0.000000
O53   O     O_2   0.904709 0.942756 0.756701 0.000000
O54   O     O_3   0.925741 0.887515 0.684892 0.000000
H120  H     H_    0.871710 0.691010 0.910422 0.000000
H121  H     H_    0.859827 0.751584 0.938398 0.000000
H122  H     H_    0.887448 0.719985 0.960988 0.000000
H123  H     H_    0.929134 0.741911 0.936865 0.000000
H124  H     H_    0.957063 0.748465 0.868068 0.000000
H125  H     H_    0.865807 0.794064 0.856953 0.000000
H126  H     H_    0.916569 0.852517 0.679000 0.000000
C145  C     C_3   0.800639 0.078984 0.800850 0.000000
C146  C     C_R   0.817889 0.033057 0.814104 0.000000
C147  C     C_R   0.837012 0.012687 0.784523 0.000000
C148  C     C_R   0.846315 0.960280 0.789926 0.000000
C149  C     C_R   0.838072 0.932962 0.827146 0.000000
N37   N     N_R   0.838755 0.878922 0.833408 0.000000
C150  C     C_R   0.827111 0.875424 0.876226 0.000000
N38   N     N_R   0.820400 0.925415 0.895980 0.000000
C151  C     C_R   0.825588 0.959426 0.862143 0.000000
C152  C     C_R   0.813145 0.007633 0.854446 0.000000
S19   S     S_3+2 0.813151 0.814180 0.896963 0.000000
O55   O     O_2   0.828224 0.762883 0.883135 0.000000
O56   O     O_2   0.787278 0.802626 0.872042 0.000000
O57   O     O_3   0.806398 0.806180 0.953684 0.000000
H127  H     H_    0.812597 0.115169 0.795945 0.000000
H128  H     H_    0.786028 0.088447 0.827913 0.000000
H129  H     H_    0.790192 0.068434 0.768596 0.000000
H130  H     H_    0.841542 0.033935 0.753694 0.000000
H131  H     H_    0.857903 0.940103 0.764207 0.000000
H132  H     H_    0.796721 0.020031 0.874550 0.000000
H133  H     H_    0.812602 0.768949 0.960101 0.000000
C153  C     C_3   0.892462 0.134886 0.767031 0.000000
C154  C     C_R   0.874150 0.163477 0.798672 0.000000
C155  C     C_R   0.860937 0.134180 0.830856 0.000000
C156  C     C_R   0.843050 0.159616 0.859747 0.000000
C157  C     C_R   0.840802 0.214780 0.859148 0.000000
N39   N     N_R   0.827665 0.247955 0.888767 0.000000
C158  C     C_R   0.831464 0.298444 0.868536 0.000000
N40   N     N_R   0.847106 0.296314 0.829344 0.000000
C159  C     C_R   0.852832 0.243116 0.825874 0.000000
C160  C     C_R   0.869560 0.218579 0.795035 0.000000
S20   S     S_3+2 0.820577 0.361715 0.894482 0.000000
O58   O     O_2   0.829857 0.368199 0.944193 0.000000
O59   O     O_2   0.791011 0.363203 0.900708 0.000000
O60   O     O_3   0.825100 0.423326 0.870904 0.000000
H134  H     H_    0.908529 0.116159 0.786831 0.000000
H135  H     H_    0.900772 0.164505 0.743364 0.000000
H136  H     H_    0.881748 0.102768 0.747287 0.000000
H137  H     H_    0.864434 0.090980 0.833071 0.000000
H138  H     H_    0.831159 0.136418 0.881709 0.000000
H139  H     H_    0.879129 0.241778 0.769337 0.000000
H140  H     H_    0.807238 0.435255 0.862252 0.000000
C161  C     C_3   0.078203 0.940073 0.722843 0.000000
C162  C     C_R   0.061848 0.944459 0.764800 0.000000
C163  C     C_R   0.068379 0.982732 0.798759 0.000000
C164  C     C_R   0.054579 0.985335 0.839272 0.000000
C165  C     C_R   0.035054 0.947692 0.845029 0.000000
N41   N     N_R   0.022876 0.934930 0.884004 0.000000
C166  C     C_R   0.004952 0.896807 0.868802 0.000000
N42   N     N_R   0.005583 0.885036 0.822548 0.000000
C167  C     C_R   0.026164 0.915460 0.809500 0.000000
C168  C     C_R   0.039786 0.912013 0.769147 0.000000
S21   S     S_3+2 0.986685 0.857504 0.905945 0.000000
O61   O     O_2   0.989790 0.801164 0.884524 0.000000
O62   O     O_2   0.956964 0.865725 0.902416 0.000000
O63   O     O_3   0.994333 0.847345 0.962020 0.000000
H141  H     H_    0.079203 0.980439 0.706961 0.000000
H142  H     H_    0.069646 0.910017 0.698103 0.000000
H143  H     H_    0.098286 0.926854 0.732190 0.000000
H144  H     H_    0.084981 0.009276 0.794224 0.000000
H145  H     H_    0.060617 0.012732 0.866811 0.000000
H146  H     H_    0.033741 0.884525 0.741784 0.000000
H147  H     H_    0.011398 0.865519 0.967075 0.000000
C169  C     C_3   0.236672 0.474876 0.525582 0.000000
C170  C     C_R   0.264477 0.456540 0.528022 0.000000
C171  C     C_R   0.273778 0.433362 0.567808 0.000000
C172  C     C_R   0.299463 0.415141 0.571009 0.000000
C173  C     C_R   0.315320 0.420277 0.533716 0.000000
N43   N     N_R   0.340528 0.403943 0.528275 0.000000
C174  C     C_R   0.346264 0.423332 0.485965 0.000000
N44   N     N_R   0.325486 0.447764 0.464202 0.000000
C175  C     C_R   0.306390 0.445161 0.495455 0.000000
C176  C     C_R   0.281031 0.463006 0.491143 0.000000
S22   S     S_3+2 0.372780 0.394558 0.457340 0.000000
O64   O     O_2   0.400888 0.409192 0.471650 0.000000
O65   O     O_2   0.372672 0.386787 0.405504 0.000000
O66   O     O_3   0.368986 0.330046 0.472981 0.000000
H148  H     H_    0.223568 0.439585 0.530517 0.000000
H149  H     H_    0.232510 0.492429 0.491850 0.000000
H150  H     H_    0.232981 0.506227 0.552853 0.000000
H151  H     H_    0.260807 0.429468 0.596649 0.000000
H152  H     H_    0.306790 0.398462 0.602278 0.000000
H153  H     H_    0.274444 0.481522 0.460058 0.000000
H154  H     H_    0.358190 0.314354 0.448228 0.000000
C177  C     C_3   0.088731 0.306953 0.583889 0.000000
C178  C     C_R   0.070006 0.291095 0.546817 0.000000
C179  C     C_R   0.075687 0.303685 0.501993 0.000000
C180  C     C_R   0.058418 0.290033 0.466997 0.000000
C181  C     C_R   0.036269 0.261177 0.477494 0.000000
N45   N     N_R   0.016234 0.247094 0.449331 0.000000
C182  C     C_R   0.996109 0.238620 0.480318 0.000000
N46   N     N_R   0.004835 0.235905 0.525004 0.000000
C183  C     C_R   0.029941 0.252057 0.521832 0.000000
C184  C     C_R   0.046530 0.266250 0.557200 0.000000
S23   S     S_3+2 0.964897 0.272259 0.472640 0.000000
O67   O     O_2   0.942708 0.236028 0.454349 0.000000
O68   O     O_2   0.965957 0.315403 0.436233 0.000000
O69   O     O_3   0.951724 0.307590 0.518500 0.000000
H155  H     H_    0.107869 0.286603 0.577388 0.000000
H156  H     H_    0.081132 0.294503 0.617444 0.000000
H157  H     H_    0.091418 0.351772 0.584489 0.000000
H158  H     H_    0.093539 0.325214 0.494426 0.000000
H159  H     H_    0.062205 0.302752 0.432705 0.000000
H160  H     H_    0.040940 0.260477 0.592158 0.000000
H161  H     H_    0.953088 0.346340 0.510382 0.000000
C185  C     C_3   0.005465 0.498961 0.622354 0.000000
C186  C     C_R   0.002778 0.438722 0.624503 0.000000
C187  C     C_R   0.002330 0.407625 0.584417 0.000000
C188  C     C_R   0.999608 0.351874 0.585814 0.000000
C189  C     C_R   0.999896 0.327719 0.627611 0.000000
N47   N     N_R   0.995755 0.274865 0.636268 0.000000
C190  C     C_R   0.994328 0.274760 0.683054 0.000000
N48   N     N_R   0.997389 0.325546 0.703519 0.000000
C191  C     C_R   0.000490 0.357984 0.667269 0.000000
C192  C     C_R   0.000145 0.414007 0.666098 0.000000
S24   S     S_3+2 0.982406 0.217311 0.712516 0.000000
O70   O     O_2   0.952871 0.209977 0.705272 0.000000
O71   O     O_2   0.982971 0.226304 0.764174 0.000000
O72   O     O_3   0.996677 0.154509 0.703974 0.000000
H162  H     H_    0.024143 0.508685 0.605138 0.000000
H163  H     H_    0.005677 0.517798 0.657235 0.000000
H164  H     H_    0.988869 0.515758 0.602577 0.000000
H165  H     H_    0.003134 0.427180 0.551848 0.000000
H166  H     H_    0.997148 0.328986 0.554542 0.000000
H167  H     H_    0.996920 0.438792 0.695922 0.000000
H168  H     H_    0.004461 0.145894 0.733921 0.000000
C193  C     C_3   0.597334 0.269670 0.556527 0.000000
C194  C     C_R   0.571093 0.243789 0.551187 0.000000
C195  C     C_R   0.569085 0.189378 0.536738 0.000000
C196  C     C_R   0.544779 0.164712 0.532123 0.000000
C197  C     C_R   0.522989 0.194816 0.544350 0.000000
N49   N     N_R   0.497851 0.177753 0.546542 0.000000
C198  C     C_R   0.485530 0.223542 0.567025 0.000000
N50   N     N_R   0.500992 0.269808 0.565717 0.000000
C199  C     C_R   0.524902 0.248497 0.557152 0.000000
C200  C     C_R   0.548732 0.274248 0.560802 0.000000
S25   S     S_3+2 0.472984 0.217074 0.624293 0.000000
O73   O     O_2   0.446889 0.192109 0.636483 0.000000
O74   O     O_2   0.467274 0.274845 0.642618 0.000000
O75   O     O_3   0.494436 0.192005 0.663526 0.000000
H169  H     H_    0.613051 0.239874 0.547803 0.000000
H170  H     H_    0.599905 0.284273 0.592447 0.000000
H171  H     H_    0.598811 0.304711 0.533658 0.000000
H172  H     H_    0.586518 0.165962 0.528496 0.000000
H173  H     H_    0.543145 0.122647 0.520543 0.000000
H174  H     H_    0.550032 0.316524 0.571730 0.000000
H175  H     H_    0.495795 0.152693 0.655700 0.000000
C201  C     C_3   0.462404 0.254185 0.413667 0.000000
C202  C     C_R   0.450612 0.264877 0.458741 0.000000
C203  C     C_R   0.426327 0.244410 0.465617 0.000000
C204  C     C_R   0.409466 0.271495 0.494708 0.000000
C205  C     C_R   0.418340 0.314252 0.520424 0.000000
N51   N     N_R   0.405106 0.347569 0.550073 0.000000
C206  C     C_R   0.425889 0.374959 0.569676 0.000000
N52   N     N_R   0.450880 0.358208 0.555934 0.000000
C207  C     C_R   0.444584 0.322726 0.522548 0.000000
C208  C     C_R   0.461090 0.300992 0.490534 0.000000
S26   S     S_3+2 0.418419 0.426369 0.607348 0.000000
O76   O     O_2   0.393677 0.452873 0.588678 0.000000
O77   O     O_2   0.437285 0.474670 0.608756 0.000000
O78   O     O_3   0.409515 0.404444 0.659938 0.000000
H176  H     H_    0.449876 0.273391 0.387845 0.000000
H177  H     H_    0.463593 0.209991 0.406040 0.000000
H178  H     H_    0.481825 0.272860 0.413074 0.000000
H179  H     H_    0.419374 0.212523 0.443074 0.000000
H180  H     H_    0.390247 0.257391 0.498805 0.000000
H181  H     H_    0.480277 0.317314 0.487923 0.000000
H182  H     H_    0.418484 0.368825 0.662623 0.000000
C209  C     C_3   0.589382 0.558678 0.565301 0.000000
C210  C     C_R   0.569246 0.515691 0.557308 0.000000
C211  C     C_R   0.564623 0.478040 0.590773 0.000000
C212  C     C_R   0.545358 0.438864 0.584731 0.000000
C213  C     C_R   0.531433 0.437743 0.544440 0.000000
N53   N     N_R   0.515317 0.397891 0.529211 0.000000
C214  C     C_R   0.518815 0.399788 0.482673 0.000000
N54   N     N_R   0.530077 0.447055 0.469441 0.000000
C215  C     C_R   0.538851 0.469167 0.509291 0.000000
C216  C     C_R   0.556459 0.511000 0.515663 0.000000
S27   S     S_3+2 0.534355 0.342683 0.457502 0.000000
O79   O     O_2   0.522967 0.290895 0.475127 0.000000
O80   O     O_2   0.562769 0.337688 0.474286 0.000000
O81   O     O_3   0.535921 0.331875 0.400514 0.000000
H183  H     H_    0.583721 0.584459 0.595433 0.000000
H184  H     H_    0.590974 0.584578 0.535033 0.000000
H185  H     H_    0.608643 0.539218 0.571824 0.000000
H186  H     H_    0.575777 0.479940 0.622232 0.000000
H187  H     H_    0.542714 0.408400 0.610012 0.000000
H188  H     H_    0.561721 0.536843 0.488278 0.000000
H189  H     H_    0.518966 0.314731 0.393564 0.000000
C217  C     C_3   0.310417 0.284653 0.460415 0.000000
C218  C     C_R   0.304660 0.297686 0.413394 0.000000
C219  C     C_R   0.285282 0.267517 0.392973 0.000000
C220  C     C_R   0.271375 0.288996 0.357988 0.000000
C221  C     C_R   0.277925 0.338481 0.342945 0.000000
N55   N     N_R   0.261213 0.368039 0.319374 0.000000
C222  C     C_R   0.267600 0.420414 0.335397 0.000000
N56   N     N_R   0.290848 0.423399 0.361781 0.000000
C223  C     C_R   0.295919 0.369855 0.365500 0.000000
C224  C     C_R   0.311365 0.347818 0.397726 0.000000
S28   S     S_3+2 0.242636 0.472402 0.335314 0.000000
O82   O     O_2   0.215871 0.447867 0.345291 0.000000
O83   O     O_2   0.237047 0.492682 0.287302 0.000000
O84   O     O_3   0.243224 0.528369 0.371804 0.000000
H190  H     H_    0.291322 0.275325 0.475614 0.000000
H191  H     H_    0.318411 0.320319 0.479365 0.000000
H192  H     H_    0.323537 0.249073 0.461111 0.000000
H193  H     H_    0.278704 0.231380 0.409345 0.000000
H194  H     H_    0.252411 0.273989 0.349239 0.000000
H195  H     H_    0.325260 0.372010 0.415077 0.000000
H196  H     H_    0.234898 0.515802 0.400101 0.000000
C225  C     C_3   0.924324 0.361204 0.930379 0.000000
C226  C     C_R   0.925942 0.315201 0.895371 0.000000
C227  C     C_R   0.949382 0.288085 0.889877 0.000000
C228  C     C_R   0.957624 0.277075 0.846365 0.000000
C229  C     C_R   0.942946 0.298738 0.812291 0.000000
N57   N     N_R   0.951819 0.329942 0.778518 0.000000
C230  C     C_R   0.928592 0.348607 0.759573 0.000000
N58   N     N_R   0.906324 0.332993 0.782854 0.000000
C231  C     C_R   0.916601 0.304895 0.817537 0.000000
C232  C     C_R   0.907214 0.309190 0.861309 0.000000
S29   S     S_3+2 0.927810 0.405509 0.723151 0.000000
O85   O     O_2   0.952698 0.438806 0.731355 0.000000
O86   O     O_2   0.907482 0.445027 0.743489 0.000000
O87   O     O_3   0.922826 0.410472 0.665818 0.000000
H197  H     H_    0.941581 0.360405 0.953507 0.000000
H198  H     H_    0.906411 0.362132 0.950962 0.000000
H199  H     H_    0.924213 0.400373 0.913307 0.000000
H200  H     H_    0.963532 0.286736 0.916801 0.000000
H201  H     H_    0.976583 0.260645 0.840817 0.000000
H202  H     H_    0.888111 0.326273 0.866905 0.000000
H203  H     H_    0.940323 0.418836 0.653338 0.000000
C233  C     C_3   0.068443 0.184285 0.708441 0.000000
C234  C     C_R   0.056635 0.199097 0.753074 0.000000
C235  C     C_R   0.061501 0.166271 0.789833 0.000000
C236  C     C_R   0.052346 0.180913 0.832684 0.000000
C237  C     C_R   0.037776 0.228073 0.837474 0.000000
N59   N     N_R   0.029279 0.253431 0.876439 0.000000
C238  C     C_R   0.019258 0.301367 0.859799 0.000000
N60   N     N_R   0.016651 0.301255 0.812927 0.000000
C239  C     C_R   0.031108 0.257483 0.800336 0.000000
C240  C     C_R   0.041241 0.245294 0.757994 0.000000
S30   S     S_3+2 0.028193 0.363928 0.886038 0.000000
O88   O     O_2   0.050359 0.360573 0.920672 0.000000
O89   O     O_2   0.006300 0.385477 0.916226 0.000000
O90   O     O_3   0.037931 0.415673 0.852419 0.000000
H204  H     H_    0.090104 0.186039 0.711542 0.000000
H205  H     H_    0.061734 0.212621 0.681982 0.000000
H206  H     H_    0.062392 0.142171 0.699172 0.000000
H207  H     H_    0.073525 0.130160 0.785375 0.000000
H208  H     H_    0.057831 0.156878 0.861237 0.000000
H209  H     H_    0.038646 0.272506 0.730199 0.000000
H210  H     H_    0.057253 0.411947 0.850936 0.000000
C241  C     C_3   0.704290 0.372524 0.881874 0.000000
C242  C     C_R   0.724979 0.342257 0.906643 0.000000
C243  C     C_R   0.740811 0.305232 0.882610 0.000000
C244  C     C_R   0.760700 0.277566 0.904544 0.000000
C245  C     C_R   0.764046 0.287568 0.950756 0.000000
N61   N     N_R   0.780850 0.262462 0.979055 0.000000
C246  C     C_R   0.770228 0.276681 0.021613 0.000000
N62   N     N_R   0.752099 0.318716 0.019990 0.000000
C247  C     C_R   0.747477 0.321528 0.974739 0.000000
C248  C     C_R   0.728177 0.350541 0.953360 0.000000
S31   S     S_3+2 0.759191 0.222869 0.056008 0.000000
O91   O     O_2   0.755455 0.168072 0.030661 0.000000
O92   O     O_2   0.730386 0.237060 0.064143 0.000000
O93   O     O_3   0.769312 0.209435 0.109783 0.000000
H211  H     H_    0.713454 0.396009 0.854390 0.000000
H212  H     H_    0.693975 0.401062 0.905732 0.000000
H213  H     H_    0.690000 0.343244 0.866641 0.000000
H214  H     H_    0.737873 0.298614 0.846304 0.000000
H215  H     H_    0.773180 0.249142 0.885863 0.000000
H216  H     H_    0.715637 0.378227 0.972598 0.000000
H217  H     H_    0.786527 0.227260 0.111345 0.000000
C249  C     C_3   0.140051 0.798578 0.891069 0.000000
C250  C     C_R   0.116235 0.824553 0.911468 0.000000
C251  C     C_R   0.102237 0.863314 0.888025 0.000000
C252  C     C_R   0.082399 0.892229 0.909729 0.000000
C253  C     C_R   0.075515 0.880055 0.953207 0.000000
N63   N     N_R   0.060704 0.911885 0.981432 0.000000
C254  C     C_R   0.071183 0.895743 0.023496 0.000000
N64   N     N_R   0.084558 0.846721 0.021620 0.000000
C255  C     C_R   0.089193 0.841312 0.976469 0.000000
C256  C     C_R   0.109983 0.814078 0.956125 0.000000
S32   S     S_3+2 0.088695 0.945655 0.056626 0.000000
O94   O     O_2   0.072307 0.975451 0.092905 0.000000
O95   O     O_2   0.098646 0.990928 0.026310 0.000000
O96   O     O_3   0.116685 0.928762 0.084521 0.000000
H218  H     H_    0.137292 0.753788 0.888788 0.000000
H219  H     H_    0.157264 0.808137 0.913103 0.000000
H220  H     H_    0.143681 0.814134 0.856509 0.000000
H221  H     H_    0.108172 0.874541 0.854174 0.000000
H222  H     H_    0.075239 0.928471 0.895792 0.000000
H223  H     H_    0.123704 0.790962 0.975432 0.000000
H224  H     H_    0.129955 0.950646 0.069107 0.000000
C257  C     C_3   0.069333 0.085559 0.102279 0.000000
C258  C     C_R   0.071441 0.088475 0.051656 0.000000
C259  C     C_R   0.086738 0.128541 0.033628 0.000000
C260  C     C_R   0.079556 0.149443 0.992856 0.000000
C261  C     C_R   0.060842 0.121641 0.968758 0.000000
N65   N     N_R   0.042973 0.141688 0.940345 0.000000
C262  C     C_R   0.030092 0.095753 0.925275 0.000000
N66   N     N_R   0.037900 0.048489 0.947079 0.000000
C263  C     C_R   0.055523 0.068862 0.977282 0.000000
C264  C     C_R   0.056985 0.054819 0.022047 0.000000
S33   S     S_3+2 0.004303 0.102214 0.884767 0.000000
O97   O     O_2   0.000506 0.161926 0.873224 0.000000
O98   O     O_2   0.977144 0.092521 0.904075 0.000000
O99   O     O_3   0.006282 0.069731 0.832495 0.000000
H225  H     H_    0.064903 0.126132 0.117412 0.000000
H226  H     H_    0.087999 0.070731 0.116953 0.000000
H227  H     H_    0.052618 0.059587 0.111311 0.000000
H228  H     H_    0.101470 0.148677 0.053389 0.000000
H229  H     H_    0.088753 0.185334 0.980785 0.000000
H230  H     H_    0.045500 0.021608 0.033805 0.000000
H231  H     H_    0.011062 0.098713 0.811287 0.000000
C265  C     C_3   0.114565 0.276474 0.840389 0.000000
C266  C     C_R   0.106892 0.293351 0.887700 0.000000
C267  C     C_R   0.119755 0.336001 0.909748 0.000000
C268  C     C_R   0.113950 0.350091 0.954609 0.000000
C269  C     C_R   0.094610 0.322114 0.976915 0.000000
N67   N     N_R   0.086517 0.325713 0.021148 0.000000
C270  C     C_R   0.065691 0.289780 0.020478 0.000000
N68   N     N_R   0.060492 0.265913 0.978171 0.000000
C271  C     C_R   0.080539 0.283870 0.953263 0.000000
C272  C     C_R   0.087190 0.266599 0.909996 0.000000
S34   S     S_3+2 0.049940 0.270870 0.071375 0.000000
O100  O     O_2   0.060680 0.218292 0.090835 0.000000
O101  O     O_2   0.021371 0.255048 0.064410 0.000000
O102  O     O_3   0.050534 0.317197 0.115831 0.000000
H232  H     H_    0.111379 0.310982 0.817366 0.000000
H233  H     H_    0.102653 0.241313 0.828206 0.000000
H234  H     H_    0.135588 0.264741 0.839980 0.000000
H235  H     H_    0.135361 0.356849 0.892568 0.000000
H236  H     H_    0.125988 0.379692 0.971101 0.000000
H237  H     H_    0.078095 0.231354 0.895235 0.000000
H238  H     H_    0.033501 0.336053 0.113482 0.000000
C273  C     C_3   0.702673 0.145835 0.930506 0.000000
C274  C     C_R   0.727778 0.115346 0.935297 0.000000
C275  C     C_R   0.727258 0.059373 0.940190 0.000000
C276  C     C_R   0.750276 0.030666 0.946335 0.000000
C277  C     C_R   0.773429 0.058998 0.947799 0.000000
N69   N     N_R   0.797743 0.039006 0.954153 0.000000
C278  C     C_R   0.812744 0.085457 0.952252 0.000000
N70   N     N_R   0.799078 0.133187 0.945992 0.000000
C279  C     C_R   0.774165 0.114251 0.942423 0.000000
C280  C     C_R   0.751406 0.142959 0.935997 0.000000
S35   S     S_3+2 0.846554 0.082941 0.959318 0.000000
O103  O     O_2   0.856564 0.026818 0.942963 0.000000
O104  O     O_2   0.852787 0.083669 0.010426 0.000000
O105  O     O_3   0.867977 0.127548 0.936546 0.000000
H239  H     H_    0.692107 0.130484 0.899611 0.000000
H240  H     H_    0.706486 0.190013 0.927360 0.000000
H241  H     H_    0.690377 0.139627 0.961089 0.000000
H242  H     H_    0.708724 0.038125 0.939896 0.000000
H243  H     H_    0.749684 0.987660 0.951366 0.000000
H244  H     H_    0.751600 0.185828 0.933603 0.000000
H245  H     H_    0.880193 0.104191 0.918398 0.000000
C281  C     C_3   0.708708 0.782474 0.885738 0.000000
C282  C     C_R   0.728460 0.816779 0.910438 0.000000
C283  C     C_R   0.740521 0.859594 0.888814 0.000000
C284  C     C_R   0.759279 0.890574 0.911663 0.000000
C285  C     C_R   0.764384 0.879467 0.956589 0.000000
N71   N     N_R   0.778988 0.909492 0.985867 0.000000
C286  C     C_R   0.769840 0.893326 0.027840 0.000000
N72   N     N_R   0.754452 0.846940 0.024787 0.000000
C287  C     C_R   0.750975 0.840684 0.979047 0.000000
C288  C     C_R   0.733806 0.807039 0.955830 0.000000
S36   S     S_3+2 0.757658 0.945429 0.065728 0.000000
O106  O     O_2   0.754842 0.000904 0.043422 0.000000
O107  O     O_2   0.773874 0.958818 0.108547 0.000000
O108  O     O_3   0.726754 0.933579 0.084492 0.000000
H246  H     H_    0.689848 0.784406 0.904522 0.000000
H247  H     H_    0.715797 0.739735 0.883757 0.000000
H248  H     H_    0.705615 0.797152 0.850684 0.000000
H249  H     H_    0.735896 0.868119 0.853685 0.000000
H250  H     H_    0.768655 0.923995 0.895077 0.000000
H251  H     H_    0.722852 0.777211 0.972916 0.000000
H252  H     H_    0.715519 0.944708 0.058784 0.000000
C289  C     C_3   0.903670 0.992945 0.426608 0.000000
C290  C     C_R   0.882560 0.030865 0.416097 0.000000
C291  C     C_R   0.886691 0.085740 0.409966 0.000000
C292  C     C_R   0.867086 0.121547 0.401583 0.000000
C293  C     C_R   0.844203 0.098612 0.391255 0.000000
N73   N     N_R   0.823898 0.123741 0.373312 0.000000
C294  C     C_R   0.808704 0.079291 0.359610 0.000000
N74   N     N_R   0.818257 0.029107 0.373729 0.000000
C295  C     C_R   0.840761 0.043961 0.392020 0.000000
C296  C     C_R   0.858833 0.009274 0.407778 0.000000
S37   S     S_3+2 0.784845 0.085239 0.315941 0.000000
O109  O     O_2   0.797037 0.106682 0.272169 0.000000
O110  O     O_2   0.764792 0.129876 0.326821 0.000000
O111  O     O_3   0.767592 0.030024 0.297155 0.000000
H253  H     H_    0.922683 0.010254 0.418660 0.000000
H254  H     H_    0.900633 0.955726 0.405382 0.000000
H255  H     H_    0.902476 0.984940 0.463314 0.000000
H256  H     H_    0.905430 0.101658 0.413275 0.000000
H257  H     H_    0.870217 0.164551 0.398184 0.000000
H258  H     H_    0.855794 0.966200 0.409703 0.000000
H259  H     H_    0.769222 0.032077 0.263613 0.000000
C297  C     C_3   0.735750 0.291301 0.493015 0.000000
C298  C     C_R   0.738741 0.270651 0.445055 0.000000
C299  C     C_R   0.716662 0.262239 0.418226 0.000000
C300  C     C_R   0.719046 0.249053 0.372278 0.000000
C301  C     C_R   0.743745 0.240568 0.354570 0.000000
N75   N     N_R   0.751289 0.237815 0.310188 0.000000
C302  C     C_R   0.778457 0.244382 0.314860 0.000000
N76   N     N_R   0.787171 0.233941 0.358196 0.000000
C303  C     C_R   0.765107 0.241051 0.382666 0.000000
C304  C     C_R   0.763361 0.261334 0.426800 0.000000
S38   S     S_3+2 0.791093 0.309798 0.301152 0.000000
O112  O     O_2   0.775953 0.344436 0.267129 0.000000
O113  O     O_2   0.819083 0.308091 0.282186 0.000000
O114  O     O_3   0.793631 0.351161 0.349200 0.000000
H260  H     H_    0.755164 0.294176 0.510058 0.000000
H261  H     H_    0.723114 0.263095 0.511875 0.000000
H262  H     H_    0.726404 0.332167 0.493116 0.000000
H263  H     H_    0.697449 0.269349 0.432589 0.000000
H264  H     H_    0.701703 0.247610 0.351813 0.000000
H265  H     H_    0.780743 0.272344 0.445887 0.000000
H266  H     H_    0.775351 0.356525 0.359694 0.000000
C305  C     C_3   0.929623 0.041304 0.239726 0.000000
C306  C     C_R   0.948275 0.005237 0.260431 0.000000
C307  C     C_R   0.972165 0.025735 0.273741 0.000000
C308  C     C_R   0.988484 0.994384 0.298791 0.000000
C309  C     C_R   0.979282 0.945231 0.311815 0.000000
N77   N     N_R   0.989080 0.915115 0.344690 0.000000
C310  C     C_R   0.974000 0.867787 0.339494 0.000000
N78   N     N_R   0.953900 0.870973 0.306122 0.000000
C311  C     C_R   0.957934 0.921851 0.292303 0.000000
C312  C     C_R   0.941186 0.952490 0.268119 0.000000
S39   S     S_3+2 0.981278 0.808460 0.373247 0.000000
O115  O     O_2   0.006206 0.778812 0.357074 0.000000
O116  O     O_2   0.960418 0.763852 0.367600 0.000000
O117  O     O_3   0.985218 0.813528 0.431256 0.000000
H267  H     H_    0.940025 0.075167 0.225187 0.000000
H268  H     H_    0.917123 0.058986 0.266833 0.000000
H269  H     H_    0.918872 0.018522 0.212464 0.000000
H270  H     H_    0.977645 0.066914 0.266517 0.000000
H271  H     H_    0.008045 0.007539 0.306658 0.000000
H272  H     H_    0.921951 0.938072 0.260243 0.000000
H273  H     H_    0.980499 0.777069 0.442186 0.000000
C313  C     C_3   0.108538 0.967739 0.502969 0.000000
C314  C     C_R   0.103880 0.968264 0.452789 0.000000
C315  C     C_R   0.125064 0.974979 0.424029 0.000000
C316  C     C_R   0.121978 0.969699 0.377281 0.000000
C317  C     C_R   0.097597 0.957974 0.360013 0.000000
N79   N     N_R   0.091162 0.943658 0.316512 0.000000
C318  C     C_R   0.065364 0.926431 0.321619 0.000000
N80   N     N_R   0.054891 0.941204 0.363759 0.000000
C319  C     C_R   0.076437 0.954704 0.388045 0.000000
C320  C     C_R   0.079038 0.959280 0.434759 0.000000
S40   S     S_3+2 0.057333 0.859199 0.300707 0.000000
O118  O     O_2   0.027949 0.848372 0.295624 0.000000
O119  O     O_2   0.063742 0.819321 0.338579 0.000000
O120  O     O_3   0.072242 0.829511 0.254059 0.000000
H274  H     H_    0.090679 0.954419 0.520888 0.000000
H275  H     H_    0.114281 0.009069 0.515523 0.000000
H276  H     H_    0.124584 0.938584 0.510192 0.000000
H277  H     H_    0.144399 0.981858 0.438263 0.000000
H278  H     H_    0.138678 0.971478 0.355581 0.000000
H279  H     H_    0.062701 0.952466 0.456810 0.000000
H280  H     H_    0.085906 0.806034 0.267352 0.000000
C321  C     C_3   0.923451 0.179647 0.367066 0.000000
C322  C     C_R   0.945844 0.141618 0.374652 0.000000
C323  C     C_R   0.943643 0.086029 0.365893 0.000000
C324  C     C_R   0.963035 0.050211 0.378702 0.000000
C325  C     C_R   0.987155 0.071859 0.386092 0.000000
N81   N     N_R   0.010338 0.046423 0.380039 0.000000
C326  C     C_R   0.026508 0.090176 0.371840 0.000000
N82   N     N_R   0.014523 0.140769 0.377883 0.000000
C327  C     C_R   0.990051 0.126844 0.387099 0.000000
C328  C     C_R   0.969548 0.162061 0.387882 0.000000
S41   S     S_3+2 0.057893 0.078873 0.347204 0.000000
O121  O     O_2   0.079326 0.066797 0.382176 0.000000
O122  O     O_2   0.069189 0.128501 0.325526 0.000000
O123  O     O_3   0.060300 0.032566 0.302951 0.000000
H281  H     H_    0.930160 0.218743 0.353620 0.000000
H282  H     H_    0.913991 0.188827 0.400007 0.000000
H283  H     H_    0.908936 0.160682 0.343344 0.000000
H284  H     H_    0.926001 0.070270 0.351176 0.000000
H285  H     H_    0.960071 0.006912 0.376076 0.000000
H286  H     H_    0.972621 0.204996 0.390964 0.000000
H287  H     H_    0.060407 0.054766 0.275280 0.000000
C329  C     C_3   0.170047 0.944837 0.002155 0.000000
C330  C     C_R   0.173292 0.892445 0.025929 0.000000
C331  C     C_R   0.197960 0.876964 0.040584 0.000000
C332  C     C_R   0.201533 0.826502 0.059233 0.000000
C333  C     C_R   0.180464 0.793223 0.062810 0.000000
N83   N     N_R   0.180536 0.742695 0.078608 0.000000
C334  C     C_R   0.154122 0.730782 0.080340 0.000000
N84   N     N_R   0.138105 0.774204 0.068196 0.000000
C335  C     C_R   0.155876 0.810885 0.054635 0.000000
C336  C     C_R   0.151846 0.859713 0.034156 0.000000
S42   S     S_3+2 0.142916 0.668430 0.104709 0.000000
O124  O     O_2   0.140501 0.620960 0.070010 0.000000
O125  O     O_2   0.114911 0.672393 0.122547 0.000000
O126  O     O_3   0.159831 0.642113 0.149427 0.000000
H288  H     H_    0.175865 0.979047 0.025536 0.000000
H289  H     H_    0.149374 0.950409 0.991364 0.000000
H290  H     H_    0.182749 0.944472 0.971475 0.000000
H291  H     H_    0.214427 0.903958 0.036576 0.000000
H292  H     H_    0.219943 0.813501 0.072213 0.000000
H293  H     H_    0.132772 0.871708 0.023282 0.000000
H294  H     H_    0.146200 0.634665 0.172405 0.000000
C337  C     C_3   0.317274 0.868121 0.134535 0.000000
C338  C     C_R   0.295363 0.832907 0.148514 0.000000
C339  C     C_R   0.293253 0.781399 0.128561 0.000000
C340  C     C_R   0.270382 0.752984 0.132498 0.000000
C341  C     C_R   0.250297 0.778957 0.154092 0.000000
N85   N     N_R   0.226460 0.759095 0.158413 0.000000
C342  C     C_R   0.218826 0.784541 0.199964 0.000000
N86   N     N_R   0.235877 0.825879 0.215429 0.000000
C343  C     C_R   0.254690 0.821080 0.183507 0.000000
C344  C     C_R   0.276031 0.851632 0.178482 0.000000
S43   S     S_3+2 0.196980 0.752303 0.239670 0.000000
O127  O     O_2   0.177362 0.710732 0.220176 0.000000
O128  O     O_2   0.177816 0.794201 0.257152 0.000000
O129  O     O_3   0.207254 0.727854 0.290424 0.000000
H295  H     H_    0.328051 0.881987 0.165212 0.000000
H296  H     H_    0.309510 0.903282 0.115788 0.000000
H297  H     H_    0.330741 0.845218 0.111489 0.000000
H298  H     H_    0.307270 0.766924 0.103701 0.000000
H299  H     H_    0.267874 0.712873 0.117062 0.000000
H300  H     H_    0.274412 0.890822 0.193306 0.000000
H301  H     H_    0.219715 0.755932 0.301556 0.000000
C345  C     C_3   0.563832 0.275848 0.869944 0.000000
C346  C     C_R   0.548650 0.323847 0.854490 0.000000
C347  C     C_R   0.550849 0.339821 0.809649 0.000000
C348  C     C_R   0.537519 0.385268 0.795044 0.000000
C349  C     C_R   0.521143 0.412280 0.825362 0.000000
N87   N     N_R   0.510516 0.461792 0.819445 0.000000
C350  C     C_R   0.513431 0.485468 0.862033 0.000000
N88   N     N_R   0.516369 0.447298 0.895815 0.000000
C351  C     C_R   0.522513 0.401820 0.870784 0.000000
C352  C     C_R   0.534601 0.355604 0.885671 0.000000
S44   S     S_3+2 0.538939 0.534790 0.860537 0.000000
O130  O     O_2   0.560903 0.504504 0.834500 0.000000
O131  O     O_2   0.553667 0.545277 0.905153 0.000000
O132  O     O_3   0.538712 0.592984 0.830384 0.000000
H302  H     H_    0.557576 0.238979 0.850098 0.000000
H303  H     H_    0.560454 0.269521 0.906801 0.000000
H304  H     H_    0.585032 0.282894 0.864250 0.000000
H305  H     H_    0.563378 0.317186 0.786160 0.000000
H306  H     H_    0.540545 0.399929 0.761048 0.000000
H307  H     H_    0.535810 0.347740 0.921013 0.000000
H308  H     H_    0.557493 0.602242 0.827307 0.000000
C353  C     C_3   0.495015 0.263277 0.791786 0.000000
C354  C     C_R   0.499317 0.297788 0.751569 0.000000
C355  C     C_R   0.514516 0.278267 0.715538 0.000000
C356  C     C_R   0.514767 0.305691 0.674911 0.000000
C357  C     C_R   0.501879 0.354776 0.674097 0.000000
N89   N     N_R   0.497875 0.387328 0.638727 0.000000
C358  C     C_R   0.494502 0.437672 0.660820 0.000000
N90   N     N_R   0.492606 0.434554 0.708098 0.000000
C359  C     C_R   0.495473 0.380627 0.713717 0.000000
C360  C     C_R   0.489941 0.350692 0.751061 0.000000
S45   S     S_3+2 0.494927 0.501074 0.630940 0.000000
O133  O     O_2   0.521638 0.529347 0.633878 0.000000
O134  O     O_2   0.477957 0.545328 0.653538 0.000000
O135  O     O_3   0.486267 0.502030 0.574312 0.000000
H309  H     H_    0.482484 0.228167 0.781514 0.000000
H310  H     H_    0.485290 0.287273 0.819520 0.000000
H311  H     H_    0.514083 0.247804 0.804287 0.000000
H312  H     H_    0.524477 0.239540 0.718038 0.000000
H313  H     H_    0.524621 0.288786 0.645386 0.000000
H314  H     H_    0.479914 0.368572 0.779509 0.000000
H315  H     H_    0.474585 0.534142 0.572022 0.000000
C361  C     C_3   0.477888 0.290819 0.308601 0.000000
C362  C     C_R   0.469981 0.234149 0.298346 0.000000
C363  C     C_R   0.443896 0.223619 0.290110 0.000000
C364  C     C_R   0.436726 0.178890 0.263921 0.000000
C365  C     C_R   0.456023 0.143283 0.251761 0.000000
N91   N     N_R   0.453891 0.100049 0.223247 0.000000
C366  C     C_R   0.477611 0.073947 0.231178 0.000000
N92   N     N_R   0.494810 0.102048 0.261231 0.000000
C367  C     C_R   0.480283 0.146357 0.271350 0.000000
C368  C     C_R   0.488524 0.193524 0.292216 0.000000
S46   S     S_3+2 0.482773 0.007502 0.207649 0.000000
O136  O     O_2   0.458090 0.973124 0.212444 0.000000
O137  O     O_2   0.502312 0.973798 0.234520 0.000000
O138  O     O_3   0.491090 0.000311 0.151330 0.000000
H316  H     H_    0.488283 0.306149 0.278411 0.000000
H317  H     H_    0.490772 0.291199 0.338600 0.000000
H318  H     H_    0.460616 0.317242 0.315548 0.000000
H319  H     H_    0.429678 0.253505 0.299718 0.000000
H320  H     H_    0.417072 0.174389 0.250598 0.000000
H321  H     H_    0.508997 0.200189 0.299011 0.000000
H322  H     H_    0.493747 0.038215 0.141814 0.000000
C369  C     C_3   0.336437 0.029432 0.067770 0.000000
C370  C     C_R   0.337770 0.049226 0.116201 0.000000
C371  C     C_R   0.314764 0.060851 0.139606 0.000000
C372  C     C_R   0.315397 0.070983 0.186310 0.000000
C373  C     C_R   0.339443 0.073590 0.207497 0.000000
N93   N     N_R   0.344099 0.085196 0.252076 0.000000
C374  C     C_R   0.371290 0.092028 0.251896 0.000000
N94   N     N_R   0.383116 0.087051 0.208874 0.000000
C375  C     C_R   0.362113 0.072894 0.182778 0.000000
C376  C     C_R   0.361752 0.055577 0.137955 0.000000
S47   S     S_3+2 0.389517 0.094682 0.303562 0.000000
O139  O     O_2   0.393994 0.152774 0.322314 0.000000
O140  O     O_2   0.417600 0.073100 0.297592 0.000000
O141  O     O_3   0.377631 0.058959 0.347919 0.000000
H323  H     H_    0.324974 0.991127 0.065585 0.000000
H324  H     H_    0.356439 0.021376 0.054478 0.000000
H325  H     H_    0.326719 0.060682 0.046906 0.000000
H326  H     H_    0.296118 0.057594 0.122095 0.000000
H327  H     H_    0.297479 0.076759 0.205510 0.000000
H328  H     H_    0.379426 0.043642 0.121293 0.000000
H329  H     H_    0.389802 0.027625 0.349140 0.000000
C377  C     C_3   0.498718 0.962780 0.004604 0.000000
C378  C     C_R   0.476690 0.978849 0.035396 0.000000
C379  C     C_R   0.472941 0.033790 0.045909 0.000000
C380  C     C_R   0.455329 0.050026 0.079255 0.000000
C381  C     C_R   0.441146 0.010480 0.100016 0.000000
N95   N     N_R   0.426225 0.017380 0.137355 0.000000
C382  C     C_R   0.417741 0.964481 0.144017 0.000000
N96   N     N_R   0.426701 0.924966 0.112157 0.000000
C383  C     C_R   0.442509 0.956345 0.086391 0.000000
C384  C     C_R   0.461217 0.939530 0.055404 0.000000
S48   S     S_3+2 0.400038 0.949944 0.193839 0.000000
O142  O     O_2   0.404201 0.994990 0.230151 0.000000
O143  O     O_2   0.411001 0.901935 0.219719 0.000000
O144  O     O_3   0.366863 0.943164 0.189132 0.000000
H330  H     H_    0.492207 0.964464 0.968500 0.000000
H331  H     H_    0.505622 0.921277 0.012474 0.000000
H332  H     H_    0.515312 0.991310 0.010113 0.000000
H333  H     H_    0.485069 0.063902 0.030115 0.000000
H334  H     H_    0.453800 0.092189 0.090095 0.000000
H335  H     H_    0.465135 0.897057 0.049750 0.000000
H336  H     H_    0.363739 0.940920 0.155753 0.000000
C385  C     C_3   0.351613 0.205562 0.993001 0.000000
C386  C     C_R   0.372916 0.193959 0.026145 0.000000
C387  C     C_R   0.378490 0.140358 0.036007 0.000000
C388  C     C_R   0.395498 0.128531 0.071080 0.000000
C389  C     C_R   0.406298 0.170825 0.095940 0.000000
N97   N     N_R   0.422197 0.167389 0.132675 0.000000
C390  C     C_R   0.432735 0.220376 0.133780 0.000000
N98   N     N_R   0.421518 0.256927 0.103085 0.000000
C391  C     C_R   0.404756 0.223113 0.080446 0.000000
C392  C     C_R   0.387189 0.235875 0.046861 0.000000
S49   S     S_3+2 0.459478 0.239178 0.169864 0.000000
O145  O     O_2   0.432593 0.238563 0.191782 0.000000
O146  O     O_2   0.456910 0.284959 0.135704 0.000000
O147  O     O_3   0.463906 0.180762 0.137324 0.000000
H337  H     H_    0.358524 0.196467 0.957717 0.000000
H338  H     H_    0.345334 0.248680 0.996863 0.000000
H339  H     H_    0.334490 0.179508 0.000273 0.000000
H340  H     H_    0.369120 0.107675 0.016709 0.000000
H341  H     H_    0.401548 0.087416 0.076327 0.000000
H342  H     H_    0.384115 0.277140 0.037910 0.000000
H343  H     H_    0.479667 0.163431 0.150498 0.000000
C393  C     C_3   0.702893 0.123977 0.079774 0.000000
C394  C     C_R   0.712722 0.100772 0.122722 0.000000
C395  C     C_R   0.711650 0.045322 0.125488 0.000000
C396  C     C_R   0.716765 0.020523 0.165834 0.000000
C397  C     C_R   0.720366 0.052336 0.204260 0.000000
N99   N     N_R   0.718369 0.035924 0.247594 0.000000
C398  C     C_R   0.718278 0.086322 0.271545 0.000000
N100  N     N_R   0.721651 0.131805 0.244200 0.000000
C399  C     C_R   0.722174 0.107907 0.201990 0.000000
C400  C     C_R   0.719877 0.132814 0.160557 0.000000
S50   S     S_3+2 0.707658 0.094119 0.330065 0.000000
O148  O     O_2   0.683328 0.060476 0.340341 0.000000
O149  O     O_2   0.695796 0.150973 0.337220 0.000000
O150  O     O_3   0.727926 0.086598 0.376414 0.000000
H344  H     H_    0.715957 0.111925 0.051062 0.000000
H345  H     H_    0.701313 0.168170 0.083721 0.000000
H346  H     H_    0.682981 0.107836 0.072495 0.000000
H347  H     H_    0.704741 0.022033 0.096279 0.000000
H348  H     H_    0.714504 0.977968 0.167374 0.000000
H349  H     H_    0.721209 0.175991 0.158073 0.000000
H350  H     H_    0.726894 0.122025 0.393363 0.000000
C401  C     C_3   0.824875 0.335434 0.127473 0.000000
C402  C     C_R   0.801028 0.318993 0.151052 0.000000
C403  C     C_R   0.801277 0.283606 0.187271 0.000000
C404  C     C_R   0.778550 0.260885 0.203121 0.000000
C405  C     C_R   0.755829 0.280464 0.186364 0.000000
N101  N     N_R   0.731581 0.264434 0.196223 0.000000
C406  C     C_R   0.717204 0.288988 0.161861 0.000000
N102  N     N_R   0.732261 0.319933 0.132656 0.000000
C407  C     C_R   0.755933 0.313794 0.150269 0.000000
C408  C     C_R   0.778049 0.332038 0.131058 0.000000
S51   S     S_3+2 0.683813 0.270824 0.150279 0.000000
O151  O     O_2   0.678227 0.216767 0.172624 0.000000
O152  O     O_2   0.679289 0.252909 0.100618 0.000000
O153  O     O_3   0.657285 0.310265 0.164530 0.000000
H351  H     H_    0.837211 0.359236 0.151729 0.000000
H352  H     H_    0.820154 0.361171 0.098132 0.000000
H353  H     H_    0.833910 0.297610 0.113563 0.000000
H354  H     H_    0.818909 0.270831 0.202623 0.000000
H355  H     H_    0.778823 0.228807 0.227376 0.000000
H356  H     H_    0.777751 0.351420 0.098889 0.000000
H357  H     H_    0.644280 0.284144 0.175931 0.000000
C409  C     C_3   0.729192 0.429192 0.322138 0.000000
C410  C     C_R   0.706784 0.392880 0.310153 0.000000
C411  C     C_R   0.681624 0.412405 0.317396 0.000000
C412  C     C_R   0.660269 0.380557 0.305836 0.000000
C413  C     C_R   0.664472 0.328440 0.290131 0.000000
N103  N     N_R   0.646399 0.290681 0.279017 0.000000
C414  C     C_R   0.661614 0.245426 0.268556 0.000000
N104  N     N_R   0.688262 0.255236 0.271205 0.000000
C415  C     C_R   0.689005 0.308251 0.284532 0.000000
C416  C     C_R   0.710683 0.340404 0.292452 0.000000
S52   S     S_3+2 0.648002 0.181009 0.251106 0.000000
O154  O     O_2   0.631043 0.154711 0.287358 0.000000
O155  O     O_2   0.669715 0.138488 0.245932 0.000000
O156  O     O_3   0.631489 0.174078 0.200465 0.000000
H358  H     H_    0.726638 0.468464 0.304888 0.000000
H359  H     H_    0.747920 0.410466 0.311227 0.000000
H360  H     H_    0.729583 0.436907 0.359635 0.000000
H361  H     H_    0.678654 0.453348 0.331016 0.000000
H362  H     H_    0.640758 0.396120 0.309588 0.000000
H363  H     H_    0.730005 0.324810 0.286203 0.000000
H364  H     H_    0.639658 0.141930 0.184960 0.000000
C417  C     C_3   0.337020 0.932972 0.930873 0.000000
C418  C     C_R   0.350179 0.901920 0.967347 0.000000
C419  C     C_R   0.370648 0.925608 0.991956 0.000000
C420  C     C_R   0.382650 0.898226 0.026996 0.000000
C421  C     C_R   0.373896 0.847094 0.036862 0.000000
N105  N     N_R   0.383405 0.813134 0.068527 0.000000
C422  C     C_R   0.366170 0.768815 0.063082 0.000000
N106  N     N_R   0.348555 0.773196 0.026593 0.000000
C423  C     C_R   0.353649 0.823847 0.012585 0.000000
C424  C     C_R   0.341742 0.850113 0.977203 0.000000
S53   S     S_3+2 0.363757 0.714212 0.103291 0.000000
O157  O     O_2   0.343314 0.730741 0.138851 0.000000
O158  O     O_2   0.387626 0.708946 0.134696 0.000000
O159  O     O_3   0.353621 0.649139 0.090390 0.000000
H365  H     H_    0.351434 0.942545 0.904032 0.000000
H366  H     H_    0.328919 0.971459 0.945838 0.000000
H367  H     H_    0.320821 0.908596 0.915524 0.000000
H368  H     H_    0.377238 0.965989 0.983845 0.000000
H369  H     H_    0.398517 0.916915 0.045308 0.000000
H370  H     H_    0.325411 0.831977 0.959164 0.000000
H371  H     H_    0.334537 0.649778 0.096550 0.000000
C425  C     C_3   0.462719 0.652800 0.186886 0.000000
C426  C     C_R   0.469820 0.676690 0.143142 0.000000
C427  C     C_R   0.492118 0.659449 0.120197 0.000000
C428  C     C_R   0.498690 0.683324 0.080009 0.000000
C429  C     C_R   0.483783 0.726511 0.066008 0.000000
N107  N     N_R   0.486779 0.753102 0.027370 0.000000
C430  C     C_R   0.466024 0.789699 0.028942 0.000000
N108  N     N_R   0.451112 0.788458 0.068631 0.000000
C431  C     C_R   0.462549 0.745527 0.089563 0.000000
C432  C     C_R   0.454141 0.717284 0.126412 0.000000
S54   S     S_3+2 0.455375 0.822319 0.978944 0.000000
O160  O     O_2   0.476075 0.861788 0.961948 0.000000
O161  O     O_2   0.431861 0.860050 0.987835 0.000000
O162  O     O_3   0.447312 0.782653 0.932147 0.000000
H372  H     H_    0.443334 0.632836 0.183412 0.000000
H373  H     H_    0.461871 0.685789 0.213445 0.000000
H374  H     H_    0.477998 0.623287 0.196336 0.000000
H375  H     H_    0.504313 0.627247 0.133180 0.000000
H376  H     H_    0.516351 0.671023 0.062483 0.000000
H377  H     H_    0.435309 0.723142 0.141174 0.000000
H378  H     H_    0.438309 0.751065 0.944989 0.000000
C433  C     C_3   0.511244 0.877329 0.159233 0.000000
C434  C     C_R   0.488567 0.857113 0.183821 0.000000
C435  C     C_R   0.489303 0.852858 0.230423 0.000000
C436  C     C_R   0.468835 0.828583 0.253243 0.000000
C437  C     C_R   0.449557 0.805674 0.227381 0.000000
N109  N     N_R   0.428043 0.780117 0.241793 0.000000
C438  C     C_R   0.411043 0.787458 0.204911 0.000000
N110  N     N_R   0.423062 0.809437 0.167681 0.000000
C439  C     C_R   0.446908 0.820405 0.183610 0.000000
C440  C     C_R   0.466092 0.846021 0.160637 0.000000
S55   S     S_3+2 0.377119 0.803912 0.211313 0.000000
O163  O     O_2   0.357390 0.758299 0.216887 0.000000
O164  O     O_2   0.368712 0.825140 0.164921 0.000000
O165  O     O_3   0.367142 0.855619 0.246844 0.000000
H379  H     H_    0.515704 0.917608 0.172997 0.000000
H380  H     H_    0.506479 0.880995 0.122694 0.000000
H381  H     H_    0.528107 0.849993 0.164902 0.000000
H382  H     H_    0.505837 0.870192 0.248154 0.000000
H383  H     H_    0.467756 0.827861 0.289867 0.000000
H384  H     H_    0.464092 0.856745 0.125662 0.000000
H385  H     H_    0.350915 0.868328 0.232479 0.000000
C441  C     C_3   0.504438 0.185734 0.035188 0.000000
C442  C     C_R   0.502122 0.245413 0.028456 0.000000
C443  C     C_R   0.523116 0.273365 0.010343 0.000000
C444  C     C_R   0.521408 0.328766 0.003321 0.000000
C445  C     C_R   0.498256 0.355011 0.013329 0.000000
N111  N     N_R   0.492150 0.407958 0.006605 0.000000
C446  C     C_R   0.467941 0.410782 0.029133 0.000000
N112  N     N_R   0.458937 0.363024 0.047663 0.000000
C447  C     C_R   0.478435 0.328348 0.035457 0.000000
C448  C     C_R   0.479534 0.273111 0.041569 0.000000
S56   S     S_3+2 0.447128 0.466431 0.030872 0.000000
O166  O     O_2   0.458719 0.522556 0.043344 0.000000
O167  O     O_2   0.427786 0.457587 0.069659 0.000000
O168  O     O_3   0.426687 0.471646 0.985927 0.000000
H386  H     H_    0.508311 0.164699 0.001855 0.000000
H387  H     H_    0.486045 0.169750 0.049674 0.000000
H388  H     H_    0.520885 0.177778 0.058984 0.000000
H389  H     H_    0.541140 0.251883 0.002308 0.000000
H390  H     H_    0.538391 0.350773 0.992814 0.000000
H391  H     H_    0.463106 0.251537 0.054932 0.000000
H392  H     H_    0.414262 0.442104 0.990699 0.000000
C449  C     C_3   0.371368 0.520664 0.170738 0.000000
C450  C     C_R   0.364117 0.489070 0.130849 0.000000
C451  C     C_R   0.344283 0.507538 0.104276 0.000000
C452  C     C_R   0.336570 0.475991 0.068243 0.000000
C453  C     C_R   0.351620 0.432473 0.056259 0.000000
N113  N     N_R   0.352948 0.413338 0.013906 0.000000
C454  C     C_R   0.374586 0.378568 0.016441 0.000000
N114  N     N_R   0.387306 0.378256 0.058902 0.000000
C455  C     C_R   0.371493 0.413629 0.082431 0.000000
C456  C     C_R   0.375878 0.439750 0.122935 0.000000
S57   S     S_3+2 0.388439 0.350443 0.966318 0.000000
O169  O     O_2   0.385976 0.394659 0.930876 0.000000
O170  O     O_2   0.371919 0.304925 0.943943 0.000000
O171  O     O_3   0.420788 0.330885 0.964503 0.000000
H393  H     H_    0.371498 0.564622 0.162975 0.000000
H394  H     H_    0.390800 0.507470 0.183023 0.000000
H395  H     H_    0.356207 0.510183 0.195402 0.000000
H396  H     H_    0.335401 0.546600 0.111016 0.000000
H397  H     H_    0.320940 0.488200 0.047172 0.000000
H398  H     H_    0.388197 0.425257 0.147980 0.000000
H399  H     H_    0.421179 0.294902 0.978887 0.000000
C457  C     C_3   0.369613 0.252319 0.213808 0.000000
C458  C     C_R   0.388392 0.296500 0.218800 0.000000
C459  C     C_R   0.396833 0.312567 0.261573 0.000000
C460  C     C_R   0.411612 0.358508 0.267882 0.000000
C461  C     C_R   0.419698 0.382554 0.229320 0.000000
N115  N     N_R   0.429721 0.432063 0.226547 0.000000
C462  C     C_R   0.435476 0.434203 0.180331 0.000000
N116  N     N_R   0.428267 0.387427 0.154705 0.000000
C463  C     C_R   0.416784 0.358602 0.187319 0.000000
C464  C     C_R   0.397668 0.320756 0.180602 0.000000
S58   S     S_3+2 0.449252 0.494784 0.157983 0.000000
O172  O     O_2   0.458443 0.531273 0.197973 0.000000
O173  O     O_2   0.429615 0.533053 0.135144 0.000000
O174  O     O_3   0.476196 0.490124 0.123634 0.000000
H400  H     H_    0.366521 0.232398 0.246730 0.000000
H401  H     H_    0.377180 0.221872 0.188481 0.000000
H402  H     H_    0.351374 0.272013 0.202441 0.000000
H403  H     H_    0.390437 0.290650 0.290027 0.000000
H404  H     H_    0.416181 0.374836 0.301534 0.000000
H405  H     H_    0.389854 0.310529 0.147267 0.000000
H406  H     H_    0.477801 0.450618 0.116655 0.000000
C465  C     C_3   0.826249 0.160355 0.174134 0.000000
C466  C     C_R   0.834728 0.161476 0.126162 0.000000
C467  C     C_R   0.815868 0.147839 0.094380 0.000000
C468  C     C_R   0.817846 0.166108 0.051325 0.000000
C469  C     C_R   0.839934 0.192677 0.040438 0.000000
N117  N     N_R   0.844581 0.213028 0.999912 0.000000
C470  C     C_R   0.871004 0.224142 0.004017 0.000000
N118  N     N_R   0.882871 0.213461 0.045857 0.000000
C471  C     C_R   0.861659 0.194385 0.068113 0.000000
C472  C     C_R   0.859099 0.181375 0.112797 0.000000
S59   S     S_3+2 0.888024 0.252108 0.960899 0.000000
O175  O     O_2   0.872636 0.299624 0.941305 0.000000
O176  O     O_2   0.895186 0.215083 0.919642 0.000000
O177  O     O_3   0.916173 0.277203 0.983162 0.000000
H407  H     H_    0.828659 0.119706 0.187445 0.000000
H408  H     H_    0.837269 0.190717 0.194303 0.000000
H409  H     H_    0.805112 0.169890 0.176164 0.000000
H410  H     H_    0.797728 0.129563 0.104726 0.000000
H411  H     H_    0.802522 0.159794 0.026993 0.000000
H412  H     H_    0.874790 0.190684 0.136299 0.000000
H413  H     H_    0.910070 0.298844 0.010139 0.000000
C473  C     C_3   0.019033 0.397605 0.043308 0.000000
C474  C     C_R   0.999273 0.355700 0.032768 0.000000
C475  C     C_R   0.978476 0.348743 0.061913 0.000000
C476  C     C_R   0.958927 0.313064 0.049741 0.000000
C477  C     C_R   0.964877 0.273076 0.019077 0.000000
N119  N     N_R   0.956782 0.221410 0.022914 0.000000
C478  C     C_R   0.977134 0.194058 0.999760 0.000000
N120  N     N_R   0.994627 0.227728 0.977647 0.000000
C479  C     C_R   0.986663 0.276798 0.992580 0.000000
C480  C     C_R   0.002527 0.321117 0.995640 0.000000
S60   S     S_3+2 0.990578 0.134636 0.022482 0.000000
O178  O     O_2   0.980223 0.123025 0.069751 0.000000
O179  O     O_2   0.019342 0.145470 0.034457 0.000000
O180  O     O_3   0.990686 0.074265 0.993001 0.000000
H414  H     H_    0.018120 0.427918 0.017072 0.000000
H415  H     H_    0.038954 0.380248 0.043383 0.000000
H416  H     H_    0.014497 0.416798 0.076756 0.000000
H417  H     H_    0.976590 0.373255 0.092909 0.000000
H418  H     H_    0.941357 0.310479 0.068764 0.000000
H419  H     H_    0.020216 0.322247 0.976460 0.000000
H420  H     H_    0.004945 0.054277 0.007413 0.000000
C481  C     C_3   0.007446 0.039526 0.179959 0.000000
C482  C     C_R   0.980834 0.060472 0.168554 0.000000
C483  C     C_R   0.977809 0.115433 0.173885 0.000000
C484  C     C_R   0.955679 0.139817 0.157725 0.000000
C485  C     C_R   0.939794 0.111309 0.128908 0.000000
N121  N     N_R   0.927026 0.131122 0.092817 0.000000
C486  C     C_R   0.920489 0.085178 0.068673 0.000000
N122  N     N_R   0.926659 0.037844 0.090162 0.000000
C487  C     C_R   0.940737 0.056280 0.126502 0.000000
C488  C     C_R   0.960202 0.029368 0.149803 0.000000
S61   S     S_3+2 0.918329 0.088380 0.009116 0.000000
O181  O     O_2   0.908048 0.143371 0.994933 0.000000
O182  O     O_2   0.896830 0.051574 0.991622 0.000000
O183  O     O_3   0.943157 0.077487 0.972012 0.000000
H421  H     H_    0.022053 0.069314 0.168408 0.000000
H422  H     H_    0.011583 0.001225 0.161473 0.000000
H423  H     H_    0.010522 0.035641 0.216956 0.000000
H424  H     H_    0.993187 0.138797 0.190284 0.000000
H425  H     H_    0.951104 0.179909 0.166955 0.000000
H426  H     H_    0.959148 0.986333 0.153217 0.000000
H427  H     H_    0.936747 0.096538 0.944807 0.000000
C489  C     C_3   0.888003 0.120837 0.204196 0.000000
C490  C     C_R   0.878700 0.158855 0.240216 0.000000
C491  C     C_R   0.857050 0.144035 0.264779 0.000000
C492  C     C_R   0.846574 0.179959 0.295913 0.000000
C493  C     C_R   0.860767 0.224427 0.308105 0.000000
N123  N     N_R   0.856460 0.255680 0.345317 0.000000
C494  C     C_R   0.875557 0.297047 0.338232 0.000000
N124  N     N_R   0.890391 0.290114 0.298453 0.000000
C495  C     C_R   0.881122 0.241849 0.282516 0.000000
C496  C     C_R   0.890558 0.208943 0.247922 0.000000
S62   S     S_3+2 0.883316 0.354878 0.375576 0.000000
O184  O     O_2   0.860277 0.393132 0.387459 0.000000
O185  O     O_2   0.899447 0.393172 0.346708 0.000000
O186  O     O_3   0.903799 0.353189 0.422150 0.000000
H428  H     H_    0.907427 0.133104 0.192903 0.000000
H429  H     H_    0.874663 0.117572 0.175121 0.000000
H430  H     H_    0.887376 0.080331 0.218110 0.000000
H431  H     H_    0.847327 0.105935 0.257526 0.000000
H432  H     H_    0.827309 0.174700 0.308849 0.000000
H433  H     H_    0.907511 0.219871 0.229347 0.000000
H434  H     H_    0.920129 0.370701 0.411910 0.000000
C497  C     C_3   0.022042 0.341969 0.216173 0.000000
C498  C     C_R   0.999820 0.312237 0.193824 0.000000
C499  C     C_R   0.002621 0.272064 0.159608 0.000000
C500  C     C_R   0.981078 0.253996 0.134125 0.000000
C501  C     C_R   0.956790 0.272263 0.147549 0.000000
N125  N     N_R   0.932668 0.257589 0.131430 0.000000
C502  C     C_R   0.917007 0.280485 0.164956 0.000000
N126  N     N_R   0.930098 0.302822 0.201796 0.000000
C503  C     C_R   0.954688 0.300886 0.187613 0.000000
C504  C     C_R   0.975358 0.324125 0.209468 0.000000
S63   S     S_3+2 0.886217 0.304501 0.153840 0.000000
O187  O     O_2   0.879534 0.308785 0.102955 0.000000
O188  O     O_2   0.885497 0.364094 0.170330 0.000000
O189  O     O_3   0.861407 0.275947 0.182607 0.000000
H435  H     H_    0.021770 0.337157 0.253625 0.000000
H436  H     H_    0.018990 0.385834 0.211213 0.000000
H437  H     H_    0.041132 0.329006 0.201837 0.000000
H438  H     H_    0.021524 0.254357 0.152898 0.000000
H439  H     H_    0.983027 0.223590 0.107102 0.000000
H440  H     H_    0.972556 0.351184 0.238057 0.000000
H441  H     H_    0.860025 0.299611 0.210470 0.000000
C505  C     C_3   0.825281 0.446524 0.309000 0.000000
C506  C     C_R   0.849685 0.465219 0.287505 0.000000
C507  C     C_R   0.852229 0.520089 0.278607 0.000000
C508  C     C_R   0.873812 0.537952 0.255436 0.000000
C509  C     C_R   0.893427 0.501157 0.246486 0.000000
N127  N     N_R   0.915359 0.511299 0.223718 0.000000
C510  C     C_R   0.929595 0.463303 0.229898 0.000000
N128  N     N_R   0.915788 0.421835 0.251830 0.000000
C511  C     C_R   0.892682 0.448271 0.260252 0.000000
C512  C     C_R   0.869556 0.428148 0.276578 0.000000
S64   S     S_3+2 0.964035 0.460973 0.217545 0.000000
O190  O     O_2   0.973671 0.518013 0.206368 0.000000
O191  O     O_2   0.970944 0.429758 0.173035 0.000000
O192  O     O_3   0.986175 0.441938 0.258317 0.000000
H442  H     H_    0.821704 0.470478 0.341072 0.000000
H443  H     H_    0.827955 0.403433 0.316988 0.000000
H444  H     H_    0.808511 0.451329 0.285223 0.000000
H445  H     H_    0.836575 0.548260 0.287318 0.000000
H446  H     H_    0.875631 0.579784 0.245823 0.000000
H447  H     H_    0.867123 0.385205 0.281548 0.000000
H448  H     H_    0.998783 0.472468 0.260552 0.000000
C513  C     C_3   0.970334 0.488546 0.388622 0.000000
C514  C     C_R   0.978075 0.432461 0.373687 0.000000
C515  C     C_R   0.000577 0.409598 0.392182 0.000000
C516  C     C_R   0.007454 0.356243 0.381569 0.000000
C517  C     C_R   0.991069 0.326734 0.353206 0.000000
N129  N     N_R   0.992598 0.273053 0.343161 0.000000
C518  C     C_R   0.971668 0.265959 0.313369 0.000000
N130  N     N_R   0.956559 0.312897 0.306605 0.000000
C519  C     C_R   0.969520 0.349768 0.333183 0.000000
C520  C     C_R   0.962664 0.402982 0.342696 0.000000
S65   S     S_3+2 0.968496 0.203365 0.281638 0.000000
O193  O     O_2   0.990343 0.162919 0.293018 0.000000
O194  O     O_2   0.975727 0.213380 0.232480 0.000000
O195  O     O_3   0.940762 0.165619 0.276898 0.000000
H449  H     H_    0.964516 0.488523 0.425079 0.000000
H450  H     H_    0.953664 0.503110 0.367790 0.000000
H451  H     H_    0.987363 0.515879 0.385013 0.000000
H452  H     H_    0.012507 0.433302 0.415919 0.000000
H453  H     H_    0.024531 0.337872 0.396532 0.000000
H454  H     H_    0.945531 0.420804 0.327494 0.000000
H455  H     H_    0.938965 0.160838 0.243665 0.000000
C521  C     C_3   0.334352 0.573737 0.258815 0.000000
C522  C     C_R   0.360850 0.593397 0.255205 0.000000
C523  C     C_R   0.363625 0.647411 0.247578 0.000000
C524  C     C_R   0.387737 0.669800 0.252612 0.000000
C525  C     C_R   0.407920 0.636687 0.261986 0.000000
N131  N     N_R   0.430261 0.653374 0.280033 0.000000
C526  C     C_R   0.443363 0.605479 0.286399 0.000000
N132  N     N_R   0.428743 0.559680 0.276197 0.000000
C527  C     C_R   0.406152 0.582069 0.262142 0.000000
C528  C     C_R   0.382059 0.559395 0.261633 0.000000
S66   S     S_3+2 0.476242 0.602718 0.302732 0.000000
O196  O     O_2   0.493235 0.575139 0.266069 0.000000
O197  O     O_2   0.478577 0.563645 0.341311 0.000000
O198  O     O_3   0.494256 0.654768 0.322957 0.000000
H456  H     H_    0.322381 0.606572 0.274631 0.000000
H457  H     H_    0.334737 0.537198 0.279658 0.000000
H458  H     H_    0.327217 0.565982 0.224191 0.000000
H459  H     H_    0.346410 0.671944 0.242623 0.000000
H460  H     H_    0.390671 0.712245 0.254227 0.000000
H461  H     H_    0.379680 0.516616 0.263999 0.000000
H462  H     H_    0.505689 0.637963 0.345943 0.000000
C529  C     C_3   0.521797 0.459277 0.183607 0.000000
C530  C     C_R   0.516417 0.474534 0.230926 0.000000
C531  C     C_R   0.536727 0.493948 0.258321 0.000000
C532  C     C_R   0.533914 0.493837 0.304911 0.000000
C533  C     C_R   0.510046 0.477998 0.321419 0.000000
N133  N     N_R   0.504347 0.466396 0.364453 0.000000
C534  C     C_R   0.477788 0.454409 0.361901 0.000000
N134  N     N_R   0.467213 0.459659 0.318667 0.000000
C535  C     C_R   0.488959 0.468571 0.294113 0.000000
C536  C     C_R   0.492319 0.461736 0.248554 0.000000
S67   S     S_3+2 0.461112 0.419694 0.405640 0.000000
O199  O     O_2   0.477791 0.369814 0.415307 0.000000
O200  O     O_2   0.435766 0.391790 0.389089 0.000000
O201  O     O_3   0.455105 0.447307 0.459075 0.000000
H463  H     H_    0.519559 0.496542 0.163687 0.000000
H464  H     H_    0.507923 0.427149 0.172022 0.000000
H465  H     H_    0.541824 0.441868 0.181560 0.000000
H466  H     H_    0.555579 0.503055 0.243649 0.000000
H467  H     H_    0.550343 0.503316 0.326842 0.000000
H468  H     H_    0.477770 0.442165 0.227920 0.000000
H469  H     H_    0.465384 0.424624 0.480012 0.000000
C537  C     C_3   0.395908 0.542590 0.506856 0.000000
C538  C     C_R   0.396697 0.535309 0.456621 0.000000
C539  C     C_R   0.420244 0.535308 0.433448 0.000000
C540  C     C_R   0.421205 0.519478 0.388016 0.000000
C541  C     C_R   0.399183 0.497177 0.368971 0.000000
N135  N     N_R   0.397148 0.469392 0.329058 0.000000
C542  C     C_R   0.370614 0.454798 0.329552 0.000000
N136  N     N_R   0.356879 0.474919 0.367178 0.000000
C543  C     C_R   0.375847 0.500814 0.390726 0.000000
C544  C     C_R   0.373935 0.522427 0.433704 0.000000
S68   S     S_3+2 0.354066 0.414863 0.286853 0.000000
O202  O     O_2   0.362542 0.421556 0.237136 0.000000
O203  O     O_2   0.326658 0.439140 0.285103 0.000000
O204  O     O_3   0.346618 0.348027 0.294215 0.000000
H470  H     H_    0.414718 0.529292 0.522037 0.000000
H471  H     H_    0.380585 0.515376 0.519239 0.000000
H472  H     H_    0.391299 0.585500 0.516553 0.000000
H473  H     H_    0.438055 0.545875 0.451161 0.000000
H474  H     H_    0.439001 0.521377 0.369330 0.000000
H475  H     H_    0.355564 0.523617 0.450453 0.000000
H476  H     H_    0.328397 0.344229 0.282830 0.000000
C545  C     C_3   0.940582 0.024099 0.843137 0.000000
C546  C     C_R   0.943952 0.994227 0.885995 0.000000
C547  C     C_R   0.921782 0.983796 0.910076 0.000000
C548  C     C_R   0.923814 0.966076 0.953798 0.000000
C549  C     C_R   0.947267 0.959331 0.973691 0.000000
N137  N     N_R   0.951913 0.952902 0.018490 0.000000
C550  C     C_R   0.979168 0.954514 0.018826 0.000000
N138  N     N_R   0.990712 0.960533 0.976725 0.000000
C551  C     C_R   0.969550 0.966764 0.949725 0.000000
C552  C     C_R   0.968342 0.984463 0.905342 0.000000
S69   S     S_3+2 0.998484 0.962707 0.067633 0.000000
O205  O     O_2   0.986910 0.939260 0.110148 0.000000
O206  O     O_2   0.004031 0.021996 0.081765 0.000000
O207  O     O_3   0.027964 0.932564 0.063375 0.000000
H477  H     H_    0.933567 0.996164 0.815633 0.000000
H478  H     H_    0.959045 0.043412 0.833836 0.000000
H479  H     H_    0.925889 0.056988 0.848805 0.000000
H480  H     H_    0.902938 0.994978 0.896267 0.000000
H481  H     H_    0.907576 0.964671 0.974416 0.000000
H482  H     H_    0.985654 0.995197 0.887277 0.000000
H483  H     H_    0.023566 0.895678 0.051634 0.000000
C553  C     C_3   0.837092 0.017227 0.179713 0.000000
C554  C     C_R   0.840657 0.021336 0.130149 0.000000
C555  C     C_R   0.818272 0.027281 0.104319 0.000000
C556  C     C_R   0.817980 0.010455 0.059439 0.000000
C557  C     C_R   0.839686 0.984711 0.043274 0.000000
N139  N     N_R   0.841166 0.955547 0.004361 0.000000
C558  C     C_R   0.866571 0.936332 0.005869 0.000000
N140  N     N_R   0.881439 0.956864 0.042558 0.000000
C559  C     C_R   0.863048 0.985656 0.066023 0.000000
C560  C     C_R   0.864346 0.006095 0.110108 0.000000
S70   S     S_3+2 0.877018 0.883565 0.967354 0.000000
O208  O     O_2   0.856250 0.839386 0.967286 0.000000
O209  O     O_2   0.901480 0.853373 0.984146 0.000000
O210  O     O_3   0.882147 0.895462 0.910814 0.000000
H484  H     H_    0.816905 0.028536 0.190351 0.000000
H485  H     H_    0.851426 0.041754 0.198567 0.000000
H486  H     H_    0.840219 0.974568 0.186909 0.000000
H487  H     H_    0.800269 0.040802 0.120301 0.000000
H488  H     H_    0.800732 0.012968 0.038819 0.000000
H489  H     H_    0.881811 0.001208 0.130535 0.000000
H490  H     H_    0.872608 0.929779 0.905711 0.000000
C561  C     C_3   0.993088 0.796181 0.068159 0.000000
C562  C     C_R   0.976477 0.817521 0.105693 0.000000
C563  C     C_R   0.981678 0.806480 0.151376 0.000000
C564  C     C_R   0.964848 0.824413 0.185327 0.000000
C565  C     C_R   0.944942 0.857617 0.172999 0.000000
N141  N     N_R   0.924112 0.873010 0.198191 0.000000
C566  C     C_R   0.909996 0.902724 0.166557 0.000000
N142  N     N_R   0.923044 0.910178 0.125636 0.000000
C567  C     C_R   0.943138 0.876096 0.129767 0.000000
C568  C     C_R   0.956545 0.852153 0.094577 0.000000
S71   S     S_3+2 0.876292 0.889708 0.163401 0.000000
O211  O     O_2   0.867791 0.848638 0.198638 0.000000
O212  O     O_2   0.889285 0.839761 0.140224 0.000000
O213  O     O_3   0.857494 0.881562 0.115064 0.000000
H491  H     H_    0.012430 0.783034 0.081229 0.000000
H492  H     H_    0.996073 0.828616 0.043710 0.000000
H493  H     H_    0.982377 0.762641 0.050321 0.000000
H494  H     H_    0.998809 0.783411 0.160793 0.000000
H495  H     H_    0.967633 0.813882 0.220141 0.000000
H496  H     H_    0.952230 0.861274 0.059554 0.000000
H497  H     H_    0.842583 0.906887 0.119365 0.000000
C569  C     C_3   0.046366 0.625439 0.242163 0.000000
C570  C     C_R   0.052089 0.657895 0.201619 0.000000
C571  C     C_R   0.066244 0.705593 0.207415 0.000000
C572  C     C_R   0.072948 0.736020 0.170362 0.000000
C573  C     C_R   0.065194 0.717591 0.127751 0.000000
N143  N     N_R   0.074561 0.733582 0.087255 0.000000
C574  C     C_R   0.065707 0.692568 0.057873 0.000000
N144  N     N_R   0.049049 0.655333 0.077980 0.000000
C575  C     C_R   0.050880 0.670748 0.122259 0.000000
C576  C     C_R   0.044032 0.640074 0.158571 0.000000
S72   S     S_3+2 0.084666 0.675363 0.008640 0.000000
O214  O     O_2   0.100717 0.623640 0.015723 0.000000
O215  O     O_2   0.107413 0.715101 0.007460 0.000000
O216  O     O_3   0.073620 0.672419 0.953353 0.000000
H498  H     H_    0.064707 0.606350 0.254524 0.000000
H499  H     H_    0.031776 0.593575 0.233121 0.000000
H500  H     H_    0.038433 0.653023 0.269359 0.000000
H501  H     H_    0.073013 0.717736 0.241141 0.000000
H502  H     H_    0.085859 0.769990 0.175084 0.000000
H503  H     H_    0.033631 0.602240 0.153217 0.000000
H504  H     H_    0.087779 0.689396 0.935674 0.000000
C577  C     C_3   0.043459 0.780544 0.907504 0.000000
C578  C     C_R   0.027195 0.741700 0.932675 0.000000
C579  C     C_R   0.026897 0.742541 0.979644 0.000000
C580  C     C_R   0.016884 0.698165 0.001118 0.000000
C581  C     C_R   0.011646 0.652755 0.975013 0.000000
N145  N     N_R   0.011567 0.601424 0.988590 0.000000
C582  C     C_R   0.005988 0.573469 0.947726 0.000000
N146  N     N_R   0.001896 0.606030 0.910194 0.000000
C583  C     C_R   0.007697 0.655335 0.929427 0.000000
C584  C     C_R   0.013389 0.702342 0.908671 0.000000
S73   S     S_3+2 0.008104 0.502525 0.941008 0.000000
O217  O     O_2   0.033419 0.474670 0.955642 0.000000
O218  O     O_2   0.010823 0.493039 0.889958 0.000000
O219  O     O_3   0.982596 0.461785 0.955469 0.000000
H505  H     H_    0.038808 0.822366 0.918621 0.000000
H506  H     H_    0.039606 0.776586 0.870673 0.000000
H507  H     H_    0.064364 0.771306 0.913448 0.000000
H508  H     H_    0.035579 0.775920 0.999165 0.000000
H509  H     H_    0.015268 0.697501 0.037306 0.000000
H510  H     H_    0.009212 0.707778 0.874483 0.000000
H511  H     H_    0.968510 0.487541 0.963339 0.000000
C585  C     C_3   0.090057 0.560895 0.904414 0.000000
C586  C     C_R   0.089212 0.533894 0.949237 0.000000
C587  C     C_R   0.108917 0.498179 0.960719 0.000000
C588  C     C_R   0.107598 0.471090 0.001188 0.000000
C589  C     C_R   0.085759 0.476676 0.027892 0.000000
N147  N     N_R   0.080359 0.450758 0.066846 0.000000
C590  C     C_R   0.059446 0.482763 0.083545 0.000000
N148  N     N_R   0.051122 0.523090 0.054648 0.000000
C591  C     C_R   0.068364 0.517383 0.020063 0.000000
C592  C     C_R   0.069728 0.546487 0.980626 0.000000
S74   S     S_3+2 0.045766 0.478428 0.139042 0.000000
O220  O     O_2   0.046459 0.419798 0.154567 0.000000
O221  O     O_2   0.016277 0.490286 0.139807 0.000000
O222  O     O_3   0.058554 0.516592 0.183520 0.000000
H512  H     H_    0.091147 0.529311 0.876626 0.000000
H513  H     H_    0.107587 0.587408 0.903084 0.000000
H514  H     H_    0.072088 0.585553 0.899445 0.000000
H515  H     H_    0.125595 0.492072 0.938420 0.000000
H516  H     H_    0.124194 0.449194 0.012465 0.000000
H517  H     H_    0.056202 0.578357 0.973885 0.000000
H518  H     H_    0.048857 0.504174 0.210529 0.000000
C593  C     C_3   0.918073 0.407885 0.083179 0.000000
C594  C     C_R   0.936000 0.455112 0.081696 0.000000
C595  C     C_R   0.956988 0.456783 0.051510 0.000000
C596  C     C_R   0.976022 0.496809 0.055299 0.000000
C597  C     C_R   0.972627 0.536016 0.087816 0.000000
N149  N     N_R   0.988385 0.578864 0.097254 0.000000
C598  C     C_R   0.973207 0.605321 0.131025 0.000000
N150  N     N_R   0.949777 0.579914 0.141998 0.000000
C599  C     C_R   0.950535 0.536746 0.114046 0.000000
C600  C     C_R   0.932128 0.497159 0.112231 0.000000
S75   S     S_3+2 0.979071 0.671994 0.149704 0.000000
O223  O     O_2   0.997427 0.697970 0.115787 0.000000
O224  O     O_2   0.994359 0.678208 0.194601 0.000000
O225  O     O_3   0.952633 0.714600 0.153527 0.000000
H519  H     H_    0.916503 0.387175 0.049247 0.000000
H520  H     H_    0.898407 0.421032 0.094644 0.000000
H521  H     H_    0.925665 0.380226 0.109283 0.000000
H522  H     H_    0.957955 0.427299 0.023718 0.000000
H523  H     H_    0.992785 0.498649 0.033508 0.000000
H524  H     H_    0.915572 0.498287 0.134790 0.000000
H525  H     H_    0.949190 0.724128 0.121476 0.000000
C601  C     C_3   0.916915 0.490389 0.980331 0.000000
C602  C     C_R   0.890380 0.511692 0.981507 0.000000
C603  C     C_R   0.874402 0.497005 0.016702 0.000000
C604  C     C_R   0.850238 0.519887 0.020270 0.000000
C605  C     C_R   0.843136 0.555528 0.988216 0.000000
N151  N     N_R   0.821475 0.584670 0.989386 0.000000
C606  C     C_R   0.821437 0.605863 0.945537 0.000000
N152  N     N_R   0.843505 0.591583 0.918704 0.000000
C607  C     C_R   0.856644 0.562109 0.949384 0.000000
C608  C     C_R   0.881403 0.544440 0.947379 0.000000
S76   S     S_3+2 0.793626 0.644110 0.927632 0.000000
O226  O     O_2   0.783760 0.674393 0.970445 0.000000
O227  O     O_2   0.769909 0.607707 0.916742 0.000000
O228  O     O_3   0.791830 0.695431 0.890639 0.000000
H526  H     H_    0.928021 0.515921 0.004982 0.000000
H527  H     H_    0.925256 0.493161 0.946077 0.000000
H528  H     H_    0.916482 0.447346 0.989744 0.000000
H529  H     H_    0.880853 0.469109 0.041758 0.000000
H530  H     H_    0.836748 0.509327 0.046242 0.000000
H531  H     H_    0.893209 0.558542 0.921065 0.000000
H532  H     H_    0.773314 0.707530 0.892968 0.000000
C609  C     C_3   0.865586 0.765680 0.039231 0.000000
C610  C     C_R   0.871358 0.714257 0.061404 0.000000
C611  C     C_R   0.895168 0.709199 0.083710 0.000000
C612  C     C_R   0.899736 0.665142 0.110525 0.000000
C613  C     C_R   0.880083 0.628749 0.115107 0.000000
N153  N     N_R   0.880520 0.586061 0.142374 0.000000
C614  C     C_R   0.856351 0.561951 0.131435 0.000000
N154  N     N_R   0.841342 0.590178 0.099820 0.000000
C615  C     C_R   0.857316 0.631796 0.090910 0.000000
C616  C     C_R   0.852603 0.673727 0.062416 0.000000
S77   S     S_3+2 0.847431 0.495871 0.150239 0.000000
O229  O     O_2   0.872137 0.463919 0.161814 0.000000
O230  O     O_2   0.836160 0.459048 0.112001 0.000000
O231  O     O_3   0.827047 0.487170 0.195640 0.000000
H533  H     H_    0.862665 0.798209 0.065476 0.000000
H534  H     H_    0.847724 0.761097 0.017957 0.000000
H535  H     H_    0.882829 0.776173 0.019060 0.000000
H536  H     H_    0.909617 0.741115 0.081707 0.000000
H537  H     H_    0.917522 0.659846 0.129030 0.000000
H538  H     H_    0.834112 0.677079 0.044586 0.000000
H539  H     H_    0.819589 0.450328 0.190401 0.000000
C617  C     C_3   0.778178 0.570720 0.236007 0.000000
C618  C     C_R   0.773389 0.532781 0.196349 0.000000
C619  C     C_R   0.759756 0.484808 0.202779 0.000000
C620  C     C_R   0.754453 0.449361 0.166369 0.000000
C621  C     C_R   0.763178 0.462860 0.123814 0.000000
N155  N     N_R   0.758709 0.436957 0.083173 0.000000
C622  C     C_R   0.773413 0.468184 0.053887 0.000000
N156  N     N_R   0.785707 0.512580 0.074630 0.000000
C623  C     C_R   0.778197 0.508087 0.118304 0.000000
C624  C     C_R   0.782973 0.544463 0.153559 0.000000
S78   S     S_3+2 0.777550 0.450823 0.995214 0.000000
O232  O     O_2   0.788575 0.393112 0.990912 0.000000
O233  O     O_2   0.799792 0.482450 0.973401 0.000000
O234  O     O_3   0.752013 0.454520 0.957269 0.000000
H540  H     H_    0.759120 0.585482 0.249782 0.000000
H541  H     H_    0.789980 0.605986 0.225404 0.000000
H542  H     H_    0.788899 0.548872 0.262953 0.000000
H543  H     H_    0.752590 0.475709 0.236325 0.000000
H544  H     H_    0.742256 0.414469 0.171459 0.000000
H545  H     H_    0.794176 0.580397 0.147810 0.000000
H546  H     H_    0.757198 0.483439 0.936265 0.000000
C625  C     C_3   0.695251 0.647697 0.949908 0.000000
C626  C     C_R   0.715473 0.641819 0.986284 0.000000
C627  C     C_R   0.730542 0.595166 0.986316 0.000000
C628  C     C_R   0.752314 0.592922 0.013976 0.000000
C629  C     C_R   0.757891 0.636532 0.042562 0.000000
N157  N     N_R   0.780120 0.643819 0.066255 0.000000
C630  C     C_R   0.776423 0.694558 0.086569 0.000000
N158  N     N_R   0.753809 0.721312 0.072260 0.000000
C631  C     C_R   0.742625 0.682030 0.044719 0.000000
C632  C     C_R   0.720743 0.684523 0.016864 0.000000
S79   S     S_3+2 0.797746 0.717998 0.131065 0.000000
O235  O     O_2   0.811489 0.670278 0.153790 0.000000
O236  O     O_2   0.783367 0.744431 0.172052 0.000000
O237  O     O_3   0.822877 0.759790 0.116730 0.000000
H547  H     H_    0.705128 0.648199 0.916250 0.000000
H548  H     H_    0.684105 0.686184 0.955217 0.000000
H549  H     H_    0.681679 0.612549 0.949866 0.000000
H550  H     H_    0.726654 0.562480 0.961753 0.000000
H551  H     H_    0.766143 0.560636 0.009016 0.000000
H552  H     H_    0.708269 0.718839 0.016127 0.000000
H553  H     H_    0.818923 0.768665 0.084705 0.000000
C633  C     C_3   0.190537 0.388848 0.425373 0.000000
C634  C     C_R   0.180879 0.360619 0.382880 0.000000
C635  C     C_R   0.154336 0.351812 0.377067 0.000000
C636  C     C_R   0.145266 0.320500 0.340477 0.000000
C637  C     C_R   0.162981 0.299222 0.309193 0.000000
N159  N     N_R   0.159629 0.260148 0.275735 0.000000
C638  C     C_R   0.184745 0.255750 0.257829 0.000000
N160  N     N_R   0.202644 0.292337 0.277785 0.000000
C639  C     C_R   0.188475 0.315380 0.311636 0.000000
C640  C     C_R   0.198195 0.342445 0.349543 0.000000
S80   S     S_3+2 0.194576 0.196269 0.223994 0.000000
O238  O     O_2   0.183793 0.143637 0.243428 0.000000
O239  O     O_2   0.223921 0.185187 0.228463 0.000000
O240  O     O_3   0.189856 0.189027 0.166512 0.000000
H554  H     H_    0.182128 0.430557 0.427761 0.000000
H555  H     H_    0.212247 0.391444 0.425186 0.000000
H556  H     H_    0.184297 0.365752 0.455439 0.000000
H557  H     H_    0.140692 0.366534 0.402812 0.000000
H558  H     H_    0.125021 0.311047 0.339744 0.000000
H559  H     H_    0.218911 0.346786 0.354444 0.000000
H560  H     H_    0.202487 0.160048 0.157288 0.000000
C641  C     C_3   0.092289 0.427291 0.316548 0.000000
C642  C     C_R   0.096127 0.405473 0.269085 0.000000
C643  C     C_R   0.096282 0.440823 0.233250 0.000000
C644  C     C_R   0.097782 0.420731 0.188782 0.000000
C645  C     C_R   0.100417 0.365863 0.181232 0.000000
N161  N     N_R   0.103205 0.339251 0.140817 0.000000
C646  C     C_R   0.110235 0.287838 0.155086 0.000000
N162  N     N_R   0.110748 0.280719 0.202346 0.000000
C647  C     C_R   0.103637 0.331559 0.216829 0.000000
C648  C     C_R   0.099798 0.350340 0.260725 0.000000
S81   S     S_3+2 0.119957 0.237996 0.115448 0.000000
O241  O     O_2   0.108682 0.248122 0.068477 0.000000
O242  O     O_2   0.106170 0.184855 0.126181 0.000000
O243  O     O_3   0.152504 0.225439 0.105937 0.000000
H561  H     H_    0.108351 0.456057 0.325476 0.000000
H562  H     H_    0.092365 0.393687 0.341037 0.000000
H563  H     H_    0.073203 0.449021 0.318739 0.000000
H564  H     H_    0.094523 0.484148 0.240113 0.000000
H565  H     H_    0.097115 0.447540 0.160752 0.000000
H566  H     H_    0.098544 0.323001 0.287701 0.000000
H567  H     H_    0.159563 0.260790 0.096731 0.000000
C649  C     C_3   0.634380 0.212474 0.423901 0.000000
C650  C     C_R   0.611852 0.201771 0.392561 0.000000
C651  C     C_R   0.595762 0.157812 0.399847 0.000000
C652  C     C_R   0.575639 0.145605 0.369570 0.000000
C653  C     C_R   0.572313 0.176230 0.331994 0.000000
N163  N     N_R   0.557960 0.162822 0.294764 0.000000
C654  C     C_R   0.568534 0.197707 0.262869 0.000000
N164  N     N_R   0.585769 0.236607 0.281740 0.000000
C655  C     C_R   0.588267 0.219019 0.324549 0.000000
C656  C     C_R   0.607867 0.233030 0.354652 0.000000
S82   S     S_3+2 0.568934 0.178748 0.203017 0.000000
O244  O     O_2   0.583370 0.124140 0.196557 0.000000
O245  O     O_2   0.586530 0.214778 0.174227 0.000000
O246  O     O_3   0.540456 0.170710 0.172315 0.000000
H568  H     H_    0.626946 0.225022 0.458186 0.000000
H569  H     H_    0.646966 0.244928 0.410504 0.000000
H570  H     H_    0.646278 0.174786 0.426578 0.000000
H571  H     H_    0.599028 0.132701 0.429058 0.000000
H572  H     H_    0.563853 0.110771 0.373650 0.000000
H573  H     H_    0.621580 0.263272 0.345887 0.000000
H574  H     H_    0.546066 0.171353 0.140001 0.000000
C657  C     C_3   0.239686 0.807117 0.869140 0.000000
C658  C     C_R   0.266892 0.787964 0.859603 0.000000
C659  C     C_R   0.274718 0.779046 0.814724 0.000000
C660  C     C_R   0.300139 0.763210 0.804887 0.000000
C661  C     C_R   0.317132 0.754909 0.840459 0.000000
N165  N     N_R   0.343138 0.744280 0.838248 0.000000
C662  C     C_R   0.349153 0.740099 0.884880 0.000000
N166  N     N_R   0.327799 0.743704 0.913848 0.000000
C663  C     C_R   0.308589 0.757909 0.884671 0.000000
C664  C     C_R   0.284209 0.778663 0.895098 0.000000
S83   S     S_3+2 0.380935 0.732282 0.909236 0.000000
O247  O     O_2   0.404307 0.741397 0.878530 0.000000
O248  O     O_2   0.384945 0.672728 0.920466 0.000000
O249  O     O_3   0.389135 0.767363 0.958157 0.000000
H575  H     H_    0.236757 0.847874 0.854539 0.000000
H576  H     H_    0.236130 0.809571 0.906409 0.000000
H577  H     H_    0.225577 0.777957 0.853214 0.000000
H578  H     H_    0.261181 0.786688 0.787137 0.000000
H579  H     H_    0.306626 0.760856 0.770236 0.000000
H580  H     H_    0.278843 0.788088 0.929867 0.000000
H581  H     H_    0.394151 0.803681 0.947334 0.000000
C665  C     C_3   0.314239 0.945402 0.804182 0.000000
C666  C     C_R   0.323328 0.915386 0.762274 0.000000
C667  C     C_R   0.322794 0.941197 0.720875 0.000000
C668  C     C_R   0.330874 0.913978 0.681520 0.000000
C669  C     C_R   0.339124 0.860902 0.684449 0.000000
N167  N     N_R   0.348363 0.828144 0.650537 0.000000
C670  C     C_R   0.352255 0.779428 0.672187 0.000000
N168  N     N_R   0.348303 0.782640 0.719137 0.000000
C671  C     C_R   0.339459 0.834693 0.725046 0.000000
C672  C     C_R   0.331961 0.862006 0.764682 0.000000
S84   S     S_3+2 0.355272 0.716440 0.639680 0.000000
O250  O     O_2   0.328563 0.692869 0.625317 0.000000
O251  O     O_2   0.365784 0.670012 0.667848 0.000000
O252  O     O_3   0.373876 0.713410 0.591276 0.000000
H582  H     H_    0.326979 0.981297 0.810813 0.000000
H583  H     H_    0.315032 0.918543 0.833882 0.000000
H584  H     H_    0.293723 0.959198 0.799174 0.000000
H585  H     H_    0.316072 0.982914 0.719333 0.000000
H586  H     H_    0.330471 0.934348 0.649688 0.000000
H587  H     H_    0.332087 0.842978 0.796981 0.000000
H588  H     H_    0.385441 0.681374 0.595089 0.000000
C673  C     C_3   0.613260 0.259739 0.002748 0.000000
C674  C     C_R   0.636184 0.293144 0.017770 0.000000
C675  C     C_R   0.661332 0.276311 0.006023 0.000000
C676  C     C_R   0.682878 0.306243 0.020631 0.000000
C677  C     C_R   0.678639 0.354018 0.045229 0.000000
N169  N     N_R   0.696447 0.389143 0.062909 0.000000
C678  C     C_R   0.680847 0.431247 0.079914 0.000000
N170  N     N_R   0.654276 0.421716 0.075203 0.000000
C679  C     C_R   0.653954 0.371931 0.054446 0.000000
C680  C     C_R   0.632441 0.341019 0.042988 0.000000
S85   S     S_3+2 0.693822 0.492450 0.105511 0.000000
O253  O     O_2   0.717854 0.513442 0.080199 0.000000
O254  O     O_2   0.704649 0.483653 0.153512 0.000000
O255  O     O_3   0.674399 0.548467 0.112532 0.000000
H589  H     H_    0.612899 0.256340 0.964898 0.000000
H590  H     H_    0.594749 0.279028 0.014867 0.000000
H591  H     H_    0.614983 0.218490 0.016954 0.000000
H592  H     H_    0.664200 0.238686 0.986562 0.000000
H593  H     H_    0.702192 0.291274 0.013376 0.000000
H594  H     H_    0.613184 0.354325 0.052381 0.000000
H595  H     H_    0.681856 0.573768 0.090565 0.000000
C681  C     C_3   0.518008 0.283725 0.171963 0.000000
C682  C     C_R   0.543535 0.307891 0.160957 0.000000
C683  C     C_R   0.547431 0.328020 0.118297 0.000000
C684  C     C_R   0.569523 0.357782 0.109311 0.000000
C685  C     C_R   0.586300 0.370013 0.144727 0.000000
N171  N     N_R   0.606736 0.404754 0.146245 0.000000
C686  C     C_R   0.617542 0.393815 0.188645 0.000000
N172  N     N_R   0.604073 0.354612 0.213156 0.000000
C687  C     C_R   0.584221 0.343016 0.184468 0.000000
C688  C     C_R   0.563039 0.311849 0.193211 0.000000
S86   S     S_3+2 0.645738 0.430710 0.208501 0.000000
O256  O     O_2   0.652085 0.470548 0.171152 0.000000
O257  O     O_2   0.671776 0.399271 0.209914 0.000000
O258  O     O_3   0.644264 0.473212 0.255813 0.000000
H596  H     H_    0.503063 0.316616 0.171975 0.000000
H597  H     H_    0.518565 0.265440 0.206135 0.000000
H598  H     H_    0.513179 0.252407 0.145298 0.000000
H599  H     H_    0.532509 0.322376 0.092715 0.000000
H600  H     H_    0.572678 0.370620 0.075540 0.000000
H601  H     H_    0.561094 0.293799 0.225487 0.000000
H602  H     H_    0.626905 0.465558 0.269165 0.000000
C689  C     C_3   0.637225 0.631910 0.274330 0.000000
C690  C     C_R   0.623719 0.614662 0.231369 0.000000
C691  C     C_R   0.611071 0.565039 0.229499 0.000000
C692  C     C_R   0.607694 0.537917 0.188040 0.000000
C693  C     C_R   0.616185 0.563212 0.149709 0.000000
N173  N     N_R   0.619258 0.541886 0.107133 0.000000
C694  C     C_R   0.623956 0.588716 0.082468 0.000000
N174  N     N_R   0.624081 0.636924 0.108782 0.000000
C695  C     C_R   0.621397 0.617622 0.151183 0.000000
C696  C     C_R   0.626285 0.644217 0.192193 0.000000
S87   S     S_3+2 0.638798 0.586158 0.027337 0.000000
O259  O     O_2   0.655672 0.534919 0.019940 0.000000
O260  O     O_2   0.660453 0.629236 0.027848 0.000000
O261  O     O_3   0.622615 0.595000 0.976772 0.000000
H603  H     H_    0.623567 0.629939 0.303360 0.000000
H604  H     H_    0.645654 0.673145 0.271241 0.000000
H605  H     H_    0.653501 0.602971 0.280616 0.000000
H606  H     H_    0.606159 0.545387 0.260810 0.000000
H607  H     H_    0.599610 0.497622 0.186594 0.000000
H608  H     H_    0.633426 0.685294 0.193622 0.000000
H609  H     H_    0.625592 0.560549 0.959117 0.000000
C697  C     C_3   0.538188 0.649442 0.251023 0.000000
C698  C     C_R   0.554135 0.687308 0.224181 0.000000
C699  C     C_R   0.559754 0.667288 0.181153 0.000000
C700  C     C_R   0.576705 0.694396 0.155009 0.000000
C701  C     C_R   0.588493 0.739597 0.173263 0.000000
N175  N     N_R   0.607011 0.766345 0.152348 0.000000
C702  C     C_R   0.608035 0.814793 0.177468 0.000000
N176  N     N_R   0.593604 0.815011 0.217901 0.000000
C703  C     C_R   0.580835 0.765928 0.212369 0.000000
C704  C     C_R   0.562836 0.739757 0.238877 0.000000
S88   S     S_3+2 0.615310 0.874933 0.147463 0.000000
O262  O     O_2   0.637630 0.857531 0.116862 0.000000
O263  O     O_2   0.628446 0.920792 0.174487 0.000000
O264  O     O_3   0.596550 0.904077 0.106634 0.000000
H610  H     H_    0.541957 0.607320 0.238163 0.000000
H611  H     H_    0.517309 0.657846 0.244788 0.000000
H612  H     H_    0.543551 0.648924 0.287243 0.000000
H613  H     H_    0.551345 0.629693 0.167931 0.000000
H614  H     H_    0.580777 0.679544 0.121068 0.000000
H615  H     H_    0.557119 0.759346 0.269956 0.000000
H616  H     H_    0.608767 0.909888 0.081061 0.000000
C705  C     C_3   0.618710 0.894598 0.973796 0.000000
C706  C     C_R   0.640673 0.865552 0.996074 0.000000
C707  C     C_R   0.666198 0.881992 0.988799 0.000000
C708  C     C_R   0.686614 0.857634 0.011609 0.000000
C709  C     C_R   0.681266 0.814089 0.038488 0.000000
N177  N     N_R   0.697657 0.789102 0.067388 0.000000
C710  C     C_R   0.681394 0.754341 0.089979 0.000000
N178  N     N_R   0.655409 0.757519 0.076413 0.000000
C711  C     C_R   0.656287 0.796508 0.044534 0.000000
C712  C     C_R   0.635532 0.824064 0.025596 0.000000
S89   S     S_3+2 0.693918 0.713324 0.135088 0.000000
O265  O     O_2   0.720808 0.735398 0.150001 0.000000
O266  O     O_2   0.701830 0.655724 0.118999 0.000000
O267  O     O_3   0.678165 0.706659 0.186072 0.000000
H617  H     H_    0.618892 0.938151 0.984939 0.000000
H618  H     H_    0.599734 0.876218 0.983268 0.000000
H619  H     H_    0.621099 0.891206 0.936190 0.000000
H620  H     H_    0.670043 0.916053 0.967246 0.000000
H621  H     H_    0.705833 0.874622 0.009745 0.000000
H622  H     H_    0.615744 0.816687 0.035999 0.000000
H623  H     H_    0.690237 0.723196 0.209061 0.000000
C713  C     C_3   0.770645 0.778583 0.565796 0.000000
C714  C     C_R   0.783740 0.816165 0.534163 0.000000
C715  C     C_R   0.778335 0.811929 0.487690 0.000000
C716  C     C_R   0.789099 0.848224 0.457797 0.000000
C717  C     C_R   0.806480 0.886564 0.474888 0.000000
N179  N     N_R   0.816016 0.930282 0.453232 0.000000
C718  C     C_R   0.823632 0.963597 0.489693 0.000000
N180  N     N_R   0.825090 0.936531 0.530872 0.000000
C719  C     C_R   0.811712 0.890603 0.520723 0.000000
C720  C     C_R   0.800129 0.856781 0.551194 0.000000
S90   S     S_3+2 0.808555 0.030251 0.491952 0.000000
O268  O     O_2   0.787692 0.037298 0.454956 0.000000
O269  O     O_2   0.826747 0.076861 0.480428 0.000000
O270  O     O_3   0.793065 0.050779 0.541338 0.000000
H624  H     H_    0.749119 0.784926 0.564221 0.000000
H625  H     H_    0.777585 0.786332 0.601314 0.000000
H626  H     H_    0.775263 0.735915 0.555239 0.000000
H627  H     H_    0.764751 0.781356 0.474947 0.000000
H628  H     H_    0.783246 0.847264 0.422323 0.000000
H629  H     H_    0.802440 0.863869 0.587481 0.000000
H630  H     H_    0.775443 0.034121 0.538946 0.000000
C721  C     C_3   0.889543 0.694693 0.387688 0.000000
C722  C     C_R   0.877266 0.747649 0.376150 0.000000
C723  C     C_R   0.854284 0.764187 0.397759 0.000000
C724  C     C_R   0.843059 0.814113 0.388680 0.000000
C725  C     C_R   0.854589 0.846380 0.357386 0.000000
N181  N     N_R   0.847466 0.897443 0.346015 0.000000
C726  C     C_R   0.866968 0.908066 0.313773 0.000000
N182  N     N_R   0.884946 0.865176 0.304361 0.000000
C727  C     C_R   0.876521 0.828495 0.334137 0.000000
C728  C     C_R   0.888696 0.780308 0.344120 0.000000
S91   S     S_3+2 0.869896 0.974229 0.291372 0.000000
O271  O     O_2   0.843363 0.003531 0.287991 0.000000
O272  O     O_2   0.879220 0.973550 0.241825 0.000000
O273  O     O_3   0.889700 0.018725 0.320052 0.000000
H631  H     H_    0.894596 0.695210 0.424561 0.000000
H632  H     H_    0.907613 0.687683 0.367342 0.000000
H633  H     H_    0.875504 0.661227 0.380056 0.000000
H634  H     H_    0.845297 0.738321 0.422504 0.000000
H635  H     H_    0.825522 0.826853 0.404922 0.000000
H636  H     H_    0.907038 0.769081 0.328506 0.000000
H637  H     H_    0.904445 0.995296 0.329522 0.000000
C729  C     C_3   0.755227 0.047796 0.664530 0.000000
C730  C     C_R   0.781967 0.069800 0.656647 0.000000
C731  C     C_R   0.786508 0.125366 0.660784 0.000000
C732  C     C_R   0.810257 0.146425 0.647195 0.000000
C733  C     C_R   0.829611 0.112315 0.633576 0.000000
N183  N     N_R   0.850697 0.126237 0.608681 0.000000
C734  C     C_R   0.858910 0.075726 0.592228 0.000000
N184  N     N_R   0.844889 0.032644 0.608737 0.000000
C735  C     C_R   0.825851 0.057417 0.632672 0.000000
C736  C     C_R   0.801859 0.035329 0.641607 0.000000
S92   S     S_3+2 0.871907 0.068856 0.537058 0.000000
O274  O     O_2   0.854327 0.118703 0.544637 0.000000
O275  O     O_2   0.854711 0.021803 0.548379 0.000000
O276  O     O_3   0.895467 0.072411 0.577284 0.000000
H638  H     H_    0.755746 0.018644 0.692684 0.000000
H639  H     H_    0.748213 0.026580 0.632871 0.000000
H640  H     H_    0.741445 0.081359 0.673665 0.000000
H641  H     H_    0.770954 0.152867 0.671387 0.000000
H642  H     H_    0.813602 0.188706 0.643881 0.000000
H643  H     H_    0.798110 0.992941 0.633452 0.000000
H644  H     H_    0.911164 0.057446 0.561746 0.000000
C737  C     C_3   0.860050 0.488201 0.623586 0.000000
C738  C     C_R   0.858845 0.428075 0.627648 0.000000
C739  C     C_R   0.853386 0.395852 0.589083 0.000000
C740  C     C_R   0.850528 0.340196 0.592440 0.000000
C741  C     C_R   0.852591 0.318386 0.634880 0.000000
N185  N     N_R   0.849833 0.265857 0.645272 0.000000
C742  C     C_R   0.848255 0.269840 0.693121 0.000000
N186  N     N_R   0.856265 0.319777 0.710951 0.000000
C743  C     C_R   0.857471 0.349900 0.673107 0.000000
C744  C     C_R   0.861827 0.404852 0.669975 0.000000
S93   S     S_3+2 0.819211 0.246546 0.720647 0.000000
O277  O     O_2   0.794519 0.255658 0.691560 0.000000
O278  O     O_2   0.812411 0.284062 0.761643 0.000000
O279  O     O_3   0.817108 0.182178 0.740751 0.000000
H645  H     H_    0.878967 0.499705 0.608022 0.000000
H646  H     H_    0.857904 0.508105 0.657766 0.000000
H647  H     H_    0.843593 0.501903 0.601838 0.000000
H648  H     H_    0.851031 0.414380 0.556272 0.000000
H649  H     H_    0.845629 0.315368 0.562907 0.000000
H650  H     H_    0.866461 0.429723 0.699579 0.000000
H651  H     H_    0.833780 0.164452 0.731359 0.000000
C745  C     C_3   0.959697 0.059886 0.493206 0.000000
C746  C     C_R   0.945511 0.111542 0.499976 0.000000
C747  C     C_R   0.919658 0.113995 0.490702 0.000000
C748  C     C_R   0.903984 0.157407 0.503848 0.000000
C749  C     C_R   0.913590 0.187508 0.539021 0.000000
N187  N     N_R   0.900989 0.214015 0.573783 0.000000
C750  C     C_R   0.922423 0.236366 0.596608 0.000000
N188  N     N_R   0.946623 0.220481 0.579624 0.000000
C751  C     C_R   0.939980 0.188956 0.544482 0.000000
C752  C     C_R   0.956734 0.154021 0.522325 0.000000
S94   S     S_3+2 0.919266 0.285942 0.639477 0.000000
O280  O     O_2   0.945522 0.312029 0.651497 0.000000
O281  O     O_2   0.904838 0.333961 0.618884 0.000000
O282  O     O_3   0.904612 0.271686 0.690045 0.000000
H652  H     H_    0.966980 0.046668 0.526537 0.000000
H653  H     H_    0.975815 0.066920 0.469746 0.000000
H654  H     H_    0.947163 0.027108 0.479185 0.000000
H655  H     H_    0.911206 0.076654 0.480297 0.000000
H656  H     H_    0.883804 0.159579 0.493877 0.000000
H657  H     H_    0.977269 0.153190 0.528894 0.000000
H658  H     H_    0.901287 0.232036 0.687587 0.000000
C753  C     C_3   0.746902 0.161043 0.568000 0.000000
C754  C     C_R   0.769619 0.168015 0.536979 0.000000
C755  C     C_R   0.767455 0.150794 0.491648 0.000000
C756  C     C_R   0.786948 0.163009 0.461005 0.000000
C757  C     C_R   0.808477 0.191031 0.477274 0.000000
N189  N     N_R   0.827528 0.214498 0.453022 0.000000
C758  C     C_R   0.844681 0.231278 0.487325 0.000000
N190  N     N_R   0.836865 0.219586 0.530869 0.000000
C759  C     C_R   0.812876 0.198024 0.522902 0.000000
C760  C     C_R   0.792587 0.192046 0.552908 0.000000
S95   S     S_3+2 0.870231 0.276585 0.477421 0.000000
O283  O     O_2   0.857294 0.328963 0.461094 0.000000
O284  O     O_2   0.886032 0.257773 0.435572 0.000000
O285  O     O_3   0.892214 0.299206 0.517964 0.000000
H659  H     H_    0.729072 0.178614 0.552382 0.000000
H660  H     H_    0.750549 0.182191 0.601299 0.000000
H661  H     H_    0.743734 0.117012 0.573270 0.000000
H662  H     H_    0.749742 0.130979 0.479577 0.000000
H663  H     H_    0.784466 0.152959 0.425238 0.000000
H664  H     H_    0.793200 0.211767 0.585887 0.000000
H665  H     H_    0.891186 0.339424 0.517008 0.000000
C761  C     C_3   0.748617 0.741272 0.773424 0.000000
C762  C     C_R   0.774491 0.717472 0.785609 0.000000
C763  C     C_R   0.776329 0.663706 0.799435 0.000000
C764  C     C_R   0.800345 0.641769 0.811882 0.000000
C765  C     C_R   0.822214 0.673945 0.808164 0.000000
N191  N     N_R   0.847653 0.659549 0.812672 0.000000
C766  C     C_R   0.860393 0.703744 0.794192 0.000000
N192  N     N_R   0.844225 0.748343 0.791136 0.000000
C767  C     C_R   0.820256 0.726421 0.794651 0.000000
C768  C     C_R   0.796713 0.749545 0.783404 0.000000
S96   S     S_3+2 0.877204 0.692538 0.740949 0.000000
O286  O     O_2   0.903511 0.664465 0.740011 0.000000
O287  O     O_2   0.884940 0.747418 0.721463 0.000000
O288  O     O_3   0.860429 0.660880 0.697132 0.000000
H666  H     H_    0.749019 0.753918 0.737378 0.000000
H667  H     H_    0.744707 0.777422 0.795976 0.000000
H668  H     H_    0.732803 0.711000 0.777727 0.000000
H669  H     H_    0.758916 0.638969 0.801679 0.000000
H670  H     H_    0.801706 0.600740 0.824055 0.000000
H671  H     H_    0.795661 0.790837 0.771969 0.000000
H672  H     H_    0.856774 0.623804 0.707505 0.000000
C769  C     C_3   0.784698 0.441300 0.673972 0.000000
C770  C     C_R   0.802044 0.463560 0.710892 0.000000
C771  C     C_R   0.804403 0.519550 0.717388 0.000000
C772  C     C_R   0.820371 0.541233 0.751569 0.000000
C773  C     C_R   0.833471 0.506178 0.779401 0.000000
N193  N     N_R   0.850264 0.517872 0.814388 0.000000
C774  C     C_R   0.862156 0.468149 0.819611 0.000000
N194  N     N_R   0.853440 0.426673 0.790800 0.000000
C775  C     C_R   0.834160 0.451759 0.767960 0.000000
C776  C     C_R   0.817229 0.428865 0.736413 0.000000
S97   S     S_3+2 0.883194 0.454756 0.864273 0.000000
O289  O     O_2   0.905881 0.493145 0.872801 0.000000
O290  O     O_2   0.899278 0.411028 0.840872 0.000000
O291  O     O_3   0.874882 0.422729 0.913215 0.000000
H673  H     H_    0.764202 0.454475 0.680625 0.000000
H674  H     H_    0.785669 0.396155 0.672657 0.000000
H675  H     H_    0.791198 0.456898 0.640700 0.000000
H676  H     H_    0.793937 0.546572 0.695164 0.000000
H677  H     H_    0.823926 0.584110 0.753249 0.000000
H678  H     H_    0.816528 0.385390 0.730588 0.000000
H679  H     H_    0.860923 0.445731 0.927011 0.000000
C777  C     C_3   0.943853 0.543469 0.670913 0.000000
C778  C     C_R   0.932005 0.550040 0.717149 0.000000
C779  C     C_R   0.905046 0.552888 0.721814 0.000000
C780  C     C_R   0.893854 0.563998 0.764032 0.000000
C781  C     C_R   0.909919 0.575205 0.800777 0.000000
N195  N     N_R   0.902848 0.593240 0.843222 0.000000
C782  C     C_R   0.927661 0.601843 0.863283 0.000000
N196  N     N_R   0.948377 0.590904 0.834366 0.000000
C783  C     C_R   0.936414 0.573310 0.795837 0.000000
C784  C     C_R   0.947966 0.557651 0.755052 0.000000
S98   S     S_3+2 0.935308 0.620771 0.921321 0.000000
O292  O     O_2   0.913042 0.643950 0.950646 0.000000
O293  O     O_2   0.954550 0.668084 0.921327 0.000000
O294  O     O_3   0.951258 0.576819 0.955485 0.000000
H680  H     H_    0.928382 0.536919 0.644676 0.000000
H681  H     H_    0.957345 0.508228 0.670110 0.000000
H682  H     H_    0.955089 0.580537 0.663009 0.000000
H683  H     H_    0.892643 0.549672 0.692066 0.000000
H684  H     H_    0.873489 0.573774 0.765393 0.000000
H685  H     H_    0.968913 0.558411 0.750747 0.000000
H686  H     H_    0.953304 0.597334 0.984895 0.000000
C785  C     C_3   0.336376 0.197448 0.127006 0.000000
C786  C     C_R   0.317138 0.211995 0.163439 0.000000
C787  C     C_R   0.299737 0.253292 0.155648 0.000000
C788  C     C_R   0.283442 0.270954 0.190087 0.000000
C789  C     C_R   0.282051 0.241530 0.229168 0.000000
N197  N     N_R   0.264320 0.247082 0.262335 0.000000
C790  C     C_R   0.268727 0.200430 0.287552 0.000000
N198  N     N_R   0.290680 0.170150 0.274050 0.000000
C791  C     C_R   0.297958 0.198099 0.236304 0.000000
C792  C     C_R   0.318022 0.188868 0.206105 0.000000
S99   S     S_3+2 0.243240 0.172073 0.321724 0.000000
O295  O     O_2   0.219213 0.209250 0.324721 0.000000
O296  O     O_2   0.249873 0.168966 0.372417 0.000000
O297  O     O_3   0.230151 0.110963 0.303912 0.000000
H687  H     H_    0.325861 0.179736 0.096921 0.000000
H688  H     H_    0.350806 0.167651 0.139282 0.000000
H689  H     H_    0.346791 0.234759 0.116917 0.000000
H690  H     H_    0.299796 0.273345 0.123359 0.000000
H691  H     H_    0.270651 0.303631 0.183392 0.000000
H692  H     H_    0.335367 0.169498 0.216609 0.000000
H693  H     H_    0.212980 0.109549 0.319212 0.000000
C793  C     C_3   0.391221 0.274317 0.383024 0.000000
C794  C     C_R   0.367987 0.238551 0.387402 0.000000
C795  C     C_R   0.352945 0.233983 0.348628 0.000000
C796  C     C_R   0.338613 0.188802 0.340321 0.000000
C797  C     C_R   0.336872 0.151945 0.373572 0.000000
N199  N     N_R   0.325934 0.103568 0.367780 0.000000
C798  C     C_R   0.330312 0.081439 0.410920 0.000000
N200  N     N_R   0.345483 0.113222 0.440889 0.000000
C799  C     C_R   0.348421 0.158363 0.415376 0.000000
C800  C     C_R   0.364499 0.202147 0.422970 0.000000
S100  S     S_3+2 0.316510 0.020385 0.430516 0.000000
O298  O     O_2   0.304377 0.981138 0.394826 0.000000
O299  O     O_2   0.293604 0.031668 0.463251 0.000000
O300  O     O_3   0.338260 0.983560 0.461258 0.000000
H694  H     H_    0.386587 0.307492 0.359950 0.000000
H695  H     H_    0.407652 0.249698 0.369080 0.000000
H696  H     H_    0.397020 0.295399 0.414361 0.000000
H697  H     H_    0.355660 0.260354 0.320934 0.000000
H698  H     H_    0.332397 0.180015 0.306267 0.000000
H699  H     H_    0.376298 0.201382 0.452728 0.000000
H700  H     H_    0.355604 0.998889 0.453714 0.000000
C801  C     C_3   0.239858 0.088404 0.442168 0.000000
C802  C     C_R   0.242396 0.056713 0.398196 0.000000
C803  C     C_R   0.221864 0.024700 0.382984 0.000000
C804  C     C_R   0.224563 0.991941 0.344231 0.000000
C805  C     C_R   0.248263 0.990363 0.321699 0.000000
N201  N     N_R   0.257079 0.956180 0.287486 0.000000
C806  C     C_R   0.279687 0.984095 0.274979 0.000000
N202  N     N_R   0.284718 0.031577 0.299618 0.000000
C807  C     C_R   0.265693 0.031014 0.330992 0.000000
C808  C     C_R   0.264128 0.062160 0.370567 0.000000
S101  S     S_3+2 0.303982 0.956918 0.239609 0.000000
O301  O     O_2   0.307410 0.896684 0.248825 0.000000
O302  O     O_2   0.331099 0.978370 0.252181 0.000000
O303  O     O_3   0.300837 0.963928 0.182005 0.000000
H701  H     H_    0.222404 0.115388 0.440655 0.000000
H702  H     H_    0.257601 0.113460 0.448612 0.000000
H703  H     H_    0.237496 0.060049 0.470609 0.000000
H704  H     H_    0.203698 0.024554 0.401888 0.000000
H705  H     H_    0.207996 0.969046 0.333611 0.000000
H706  H     H_    0.279156 0.090825 0.379651 0.000000
H707  H     H_    0.282912 0.978807 0.177908 0.000000
C809  C     C_3   0.449953 0.080433 0.681902 0.000000
C810  C     C_R   0.436259 0.087615 0.637808 0.000000
C811  C     C_R   0.409578 0.096907 0.637859 0.000000
C812  C     C_R   0.395874 0.101094 0.597065 0.000000
C813  C     C_R   0.409920 0.099871 0.557470 0.000000
N203  N     N_R   0.400697 0.105096 0.514806 0.000000
C814  C     C_R   0.423485 0.108098 0.489590 0.000000
N204  N     N_R   0.446009 0.105845 0.515805 0.000000
C815  C     C_R   0.436444 0.099701 0.558104 0.000000
C816  C     C_R   0.450189 0.091720 0.597703 0.000000
S102  S     S_3+2 0.423656 0.096269 0.429547 0.000000
O304  O     O_2   0.400614 0.125344 0.408499 0.000000
O305  O     O_2   0.416076 0.037216 0.417728 0.000000
O306  O     O_3   0.449202 0.112396 0.394658 0.000000
H708  H     H_    0.447675 0.117729 0.703811 0.000000
H709  H     H_    0.471054 0.072289 0.675761 0.000000
H710  H     H_    0.440901 0.045653 0.699192 0.000000
H711  H     H_    0.399350 0.099595 0.670095 0.000000
H712  H     H_    0.374828 0.106097 0.596984 0.000000
H713  H     H_    0.471066 0.095067 0.599045 0.000000
H714  H     H_    0.441094 0.134262 0.370470 0.000000
C817  C     C_3   0.251553 0.267703 0.566723 0.000000
C818  C     C_R   0.277894 0.244337 0.556244 0.000000
C819  C     C_R   0.279816 0.193956 0.533482 0.000000
C820  C     C_R   0.304145 0.170799 0.524728 0.000000
C821  C     C_R   0.325795 0.197816 0.541323 0.000000
N205  N     N_R   0.350695 0.179568 0.543711 0.000000
C822  C     C_R   0.363513 0.226253 0.560543 0.000000
N206  N     N_R   0.348288 0.272193 0.562202 0.000000
C823  C     C_R   0.324154 0.251125 0.555625 0.000000
C824  C     C_R   0.300340 0.274264 0.566154 0.000000
S103  S     S_3+2 0.392325 0.228489 0.595089 0.000000
O307  O     O_2   0.390555 0.199380 0.640416 0.000000
O308  O     O_2   0.394790 0.286238 0.615220 0.000000
O309  O     O_3   0.422504 0.218879 0.571920 0.000000
H715  H     H_    0.240325 0.271708 0.534484 0.000000
H716  H     H_    0.253503 0.308438 0.583716 0.000000
H717  H     H_    0.240918 0.240234 0.589625 0.000000
H718  H     H_    0.262230 0.172509 0.522998 0.000000
H719  H     H_    0.305909 0.132456 0.506093 0.000000
H720  H     H_    0.299232 0.312809 0.583750 0.000000
H721  H     H_    0.419447 0.196709 0.544292 0.000000
C825  C     C_3   0.255121 0.930823 0.589192 0.000000
C826  C     C_R   0.279918 0.957020 0.574778 0.000000
C827  C     C_R   0.280666 0.013128 0.570879 0.000000
C828  C     C_R   0.303873 0.039024 0.560755 0.000000
C829  C     C_R   0.325828 0.008103 0.552381 0.000000
N207  N     N_R   0.350644 0.026615 0.548318 0.000000
C830  C     C_R   0.364681 0.980833 0.563697 0.000000
N208  N     N_R   0.349975 0.933817 0.565901 0.000000
C831  C     C_R   0.325489 0.953153 0.560057 0.000000
C832  C     C_R   0.302678 0.926527 0.569824 0.000000
S104  S     S_3+2 0.382985 0.986239 0.614536 0.000000
O310  O     O_2   0.412906 0.987599 0.613123 0.000000
O311  O     O_2   0.380050 0.928384 0.630717 0.000000
O312  O     O_3   0.371290 0.019347 0.662749 0.000000
H722  H     H_    0.249476 0.947234 0.623459 0.000000
H723  H     H_    0.257805 0.886096 0.590695 0.000000
H724  H     H_    0.239329 0.939920 0.564404 0.000000
H725  H     H_    0.263298 0.037146 0.578262 0.000000
H726  H     H_    0.305290 0.082139 0.565322 0.000000
H727  H     H_    0.303032 0.884107 0.577356 0.000000
H728  H     H_    0.374440 0.993506 0.687523 0.000000
C833  C     C_3   0.096223 0.767931 0.784094 0.000000
C834  C     C_R   0.070824 0.740019 0.791255 0.000000
C835  C     C_R   0.070709 0.688460 0.809652 0.000000
C836  C     C_R   0.047383 0.660955 0.815315 0.000000
C837  C     C_R   0.024736 0.684854 0.799801 0.000000
N209  N     N_R   0.999924 0.666178 0.803739 0.000000
C838  C     C_R   0.985467 0.711140 0.791016 0.000000
N210  N     N_R   0.999741 0.756785 0.783435 0.000000
C839  C     C_R   0.024574 0.738092 0.786850 0.000000
C840  C     C_R   0.047462 0.766091 0.781177 0.000000
S105  S     S_3+2 0.954719 0.705581 0.765584 0.000000
O313  O     O_2   0.934028 0.688564 0.799872 0.000000
O314  O     O_2   0.955932 0.657510 0.731677 0.000000
O315  O     O_3   0.941152 0.754329 0.732290 0.000000
H729  H     H_    0.107006 0.770309 0.816853 0.000000
H730  H     H_    0.092899 0.809645 0.771673 0.000000
H731  H     H_    0.107984 0.744175 0.758661 0.000000
H732  H     H_    0.088968 0.669669 0.819674 0.000000
H733  H     H_    0.047069 0.621580 0.830863 0.000000
H734  H     H_    0.047307 0.806659 0.769006 0.000000
H735  H     H_    0.936173 0.734533 0.703659 0.000000
C841  C     C_3   0.077179 0.560948 0.706023 0.000000
C842  C     C_R   0.058682 0.524088 0.729184 0.000000
C843  C     C_R   0.061359 0.468026 0.722709 0.000000
C844  C     C_R   0.043143 0.433157 0.740787 0.000000
C845  C     C_R   0.023138 0.455906 0.766252 0.000000
N211  N     N_R   0.001871 0.430382 0.782237 0.000000
C846  C     C_R   0.989585 0.471984 0.806145 0.000000
N212  N     N_R   0.001597 0.522237 0.805068 0.000000
C847  C     C_R   0.022194 0.510545 0.777294 0.000000
C848  C     C_R   0.038731 0.545721 0.756291 0.000000
S106  S     S_3+2 0.962734 0.458569 0.839715 0.000000
O316  O     O_2   0.937649 0.463083 0.812463 0.000000
O317  O     O_2   0.958232 0.498813 0.879686 0.000000
O318  O     O_3   0.962291 0.395751 0.861180 0.000000
H736  H     H_    0.097496 0.551994 0.717247 0.000000
H737  H     H_    0.072460 0.604118 0.714777 0.000000
H738  H     H_    0.075625 0.554114 0.668510 0.000000
H739  H     H_    0.077026 0.451692 0.701573 0.000000
H740  H     H_    0.044141 0.389718 0.733867 0.000000
H741  H     H_    0.034968 0.588509 0.757476 0.000000
H742  H     H_    0.964669 0.403770 0.893862 0.000000
C849  C     C_3   0.936024 0.869313 0.425442 0.000000
C850  C     C_R   0.923842 0.884453 0.468803 0.000000
C851  C     C_R   0.897707 0.873137 0.472650 0.000000
C852  C     C_R   0.884204 0.894215 0.508866 0.000000
C853  C     C_R   0.897722 0.922522 0.542225 0.000000
N213  N     N_R   0.887556 0.945237 0.579890 0.000000
C854  C     C_R   0.909156 0.966044 0.602608 0.000000
N214  N     N_R   0.932938 0.958361 0.578872 0.000000
C855  C     C_R   0.924167 0.930693 0.540776 0.000000
C856  C     C_R   0.937676 0.912532 0.502858 0.000000
S107  S     S_3+2 0.903840 0.995950 0.658884 0.000000
O319  O     O_2   0.895637 0.055909 0.661744 0.000000
O320  O     O_2   0.927694 0.995392 0.690698 0.000000
O321  O     O_3   0.879054 0.966684 0.687470 0.000000
H743  H     H_    0.955125 0.890284 0.423945 0.000000
H744  H     H_    0.923813 0.881813 0.396283 0.000000
H745  H     H_    0.936876 0.824395 0.424314 0.000000
H746  H     H_    0.887478 0.851479 0.445440 0.000000
H747  H     H_    0.863689 0.888013 0.509517 0.000000
H748  H     H_    0.957888 0.921062 0.498364 0.000000
H749  H     H_    0.882670 0.927658 0.681967 0.000000
C857  C     C_3   0.977887 0.688224 0.625266 0.000000
C858  C     C_R   0.976344 0.748656 0.630026 0.000000
C859  C     C_R   0.968720 0.778559 0.592717 0.000000
C860  C     C_R   0.969163 0.834800 0.595184 0.000000
C861  C     C_R   0.976949 0.859678 0.635490 0.000000
N215  N     N_R   0.981470 0.913100 0.643380 0.000000
C862  C     C_R   0.987434 0.914451 0.689568 0.000000
N216  N     N_R   0.985674 0.864004 0.710527 0.000000
C863  C     C_R   0.981055 0.830621 0.673920 0.000000
C864  C     C_R   0.982551 0.774816 0.671230 0.000000
S108  S     S_3+2 0.996010 0.977273 0.717841 0.000000
O322  O     O_2   0.981286 0.021371 0.693089 0.000000
O323  O     O_2   0.024032 0.997057 0.710036 0.000000
O324  O     O_3   0.988354 0.993167 0.773045 0.000000
H750  H     H_    0.958084 0.671695 0.617681 0.000000
H751  H     H_    0.985450 0.670680 0.657182 0.000000
H752  H     H_    0.991342 0.676814 0.596860 0.000000
H753  H     H_    0.963624 0.757832 0.560865 0.000000
H754  H     H_    0.964911 0.858068 0.565549 0.000000
H755  H     H_    0.989156 0.751988 0.699729 0.000000
H756  H     H_    0.977440 0.026090 0.769325 0.000000
C865  C     C_3   0.092084 0.109998 0.611081 0.000000
C866  C     C_R   0.064192 0.092641 0.614204 0.000000
C867  C     C_R   0.058394 0.038187 0.621593 0.000000
C868  C     C_R   0.032882 0.019629 0.617229 0.000000
C869  C     C_R   0.013565 0.057470 0.610382 0.000000
N217  N     N_R   0.987674 0.048142 0.607020 0.000000
C870  C     C_R   0.977643 0.100496 0.607476 0.000000
N218  N     N_R   0.996194 0.140273 0.604061 0.000000
C871  C     C_R   0.018797 0.111829 0.607785 0.000000
C872  C     C_R   0.044193 0.130277 0.607609 0.000000
S109  S     S_3+2 0.950943 0.115694 0.642877 0.000000
O325  O     O_2   0.945093 0.057399 0.627680 0.000000
O326  O     O_2   0.924082 0.131737 0.625142 0.000000
O327  O     O_3   0.947904 0.096764 0.698383 0.000000
H757  H     H_    0.105386 0.075924 0.619573 0.000000
H758  H     H_    0.095959 0.145019 0.634656 0.000000
H759  H     H_    0.096128 0.122363 0.575795 0.000000
H760  H     H_    0.073995 0.009010 0.626478 0.000000
H761  H     H_    0.028348 0.976842 0.619601 0.000000
H762  H     H_    0.048633 0.172466 0.603382 0.000000
H763  H     H_    0.930373 0.109952 0.707341 0.000000
C873  C     C_3   0.057912 0.771607 0.468058 0.000000
C874  C     C_R   0.041144 0.817193 0.485722 0.000000
C875  C     C_R   0.035334 0.821124 0.532032 0.000000
C876  C     C_R   0.020483 0.864085 0.549663 0.000000
C877  C     C_R   0.010112 0.900662 0.519873 0.000000
N219  N     N_R   0.998628 0.949150 0.530523 0.000000
C878  C     C_R   0.004054 0.977980 0.491276 0.000000
N220  N     N_R   0.010761 0.944513 0.454377 0.000000
C879  C     C_R   0.016816 0.897798 0.474624 0.000000
C880  C     C_R   0.032549 0.857057 0.456693 0.000000
S110  S     S_3+2 0.026069 0.034914 0.498411 0.000000
O328  O     O_2   0.015442 0.091795 0.510966 0.000000
O329  O     O_2   0.038809 0.045616 0.452692 0.000000
O330  O     O_3   0.053796 0.025212 0.529576 0.000000
H764  H     H_    0.077317 0.773453 0.485237 0.000000
H765  H     H_    0.060643 0.774613 0.430682 0.000000
H766  H     H_    0.048365 0.732270 0.475247 0.000000
H767  H     H_    0.043470 0.791661 0.554918 0.000000
H768  H     H_    0.019108 0.870676 0.586037 0.000000
H769  H     H_    0.038301 0.856997 0.421220 0.000000
H770  H     H_    0.066954 0.048515 0.515069 0.000000
C881  C     C_3   0.441031 0.828010 0.423584 0.000000
C882  C     C_R   0.436230 0.803516 0.468782 0.000000
C883  C     C_R   0.413145 0.775766 0.474680 0.000000
C884  C     C_R   0.401313 0.778295 0.516274 0.000000
C885  C     C_R   0.413040 0.809659 0.549147 0.000000
N221  N     N_R   0.402047 0.834019 0.586004 0.000000
C886  C     C_R   0.424337 0.847926 0.611497 0.000000
N222  N     N_R   0.447988 0.840018 0.587872 0.000000
C887  C     C_R   0.439392 0.817176 0.548170 0.000000
C888  C     C_R   0.451795 0.815642 0.506686 0.000000
S111  S     S_3+2 0.422927 0.866284 0.671366 0.000000
O331  O     O_2   0.395515 0.858489 0.690922 0.000000
O332  O     O_2   0.427907 0.926394 0.683939 0.000000
O333  O     O_3   0.441503 0.829064 0.707242 0.000000
H771  H     H_    0.431017 0.804203 0.396473 0.000000
H772  H     H_    0.462282 0.832638 0.417002 0.000000
H773  H     H_    0.431009 0.867897 0.422418 0.000000
H774  H     H_    0.402556 0.758111 0.446025 0.000000
H775  H     H_    0.383329 0.757686 0.521582 0.000000
H776  H     H_    0.470870 0.833287 0.503125 0.000000
H777  H     H_    0.450181 0.802022 0.686674 0.000000
C889  C     C_3   0.257102 0.760930 0.612637 0.000000
C890  C     C_R   0.276678 0.755533 0.575250 0.000000
C891  C     C_R   0.269103 0.731821 0.533751 0.000000
C892  C     C_R   0.286122 0.730229 0.497153 0.000000
C893  C     C_R   0.310763 0.751594 0.503435 0.000000
N223  N     N_R   0.327111 0.765650 0.469831 0.000000
C894  C     C_R   0.344070 0.801013 0.492252 0.000000
N224  N     N_R   0.340490 0.804244 0.538674 0.000000
C895  C     C_R   0.318408 0.774958 0.544174 0.000000
C896  C     C_R   0.301544 0.777406 0.580796 0.000000
S112  S     S_3+2 0.359820 0.855380 0.464547 0.000000
O334  O     O_2   0.339325 0.886322 0.437303 0.000000
O335  O     O_2   0.378352 0.836462 0.426821 0.000000
O336  O     O_3   0.377758 0.903860 0.493518 0.000000
H778  H     H_    0.240758 0.787447 0.601583 0.000000
H779  H     H_    0.266263 0.779091 0.643879 0.000000
H780  H     H_    0.249197 0.720190 0.619991 0.000000
H781  H     H_    0.249374 0.716527 0.529406 0.000000
H782  H     H_    0.279511 0.715889 0.463894 0.000000
H783  H     H_    0.306630 0.799082 0.611967 0.000000
H784  H     H_    0.395620 0.900303 0.480634 0.000000
C897  C     C_3   0.440512 0.914562 0.886077 0.000000
C898  C     C_R   0.429335 0.869637 0.857264 0.000000
C899  C     C_R   0.402692 0.870112 0.848578 0.000000
C900  C     C_R   0.391701 0.829554 0.821556 0.000000
C901  C     C_R   0.407960 0.792158 0.800695 0.000000
N225  N     N_R   0.400798 0.749547 0.774111 0.000000
C902  C     C_R   0.424690 0.730806 0.757787 0.000000
N226  N     N_R   0.446096 0.754427 0.779911 0.000000
C903  C     C_R   0.434361 0.793108 0.806747 0.000000
C904  C     C_R   0.445171 0.828600 0.838525 0.000000
S113  S     S_3+2 0.427122 0.696419 0.703192 0.000000
O337  O     O_2   0.409685 0.645999 0.700802 0.000000
O338  O     O_2   0.454297 0.672457 0.692850 0.000000
O339  O     O_3   0.419165 0.730838 0.655145 0.000000
H785  H     H_    0.461785 0.908179 0.890964 0.000000
H786  H     H_    0.430392 0.916832 0.919389 0.000000
H787  H     H_    0.437128 0.953613 0.868973 0.000000
H788  H     H_    0.390377 0.901269 0.864207 0.000000
H789  H     H_    0.371050 0.827339 0.817191 0.000000
H790  H     H_    0.464973 0.823729 0.849760 0.000000
H791  H     H_    0.405163 0.755977 0.665539 0.000000
C905  C     C_3   0.591548 0.662509 0.735045 0.000000
C906  C     C_R   0.565399 0.635818 0.733434 0.000000
C907  C     C_R   0.564034 0.579703 0.725928 0.000000
C908  C     C_R   0.540340 0.552961 0.729424 0.000000
C909  C     C_R   0.518253 0.584130 0.736368 0.000000
N227  N     N_R   0.494882 0.566161 0.750389 0.000000
C910  C     C_R   0.481846 0.613956 0.760433 0.000000
N228  N     N_R   0.495737 0.660905 0.752927 0.000000
C911  C     C_R   0.519133 0.640066 0.739399 0.000000
C912  C     C_R   0.542788 0.666154 0.741816 0.000000
S114  S     S_3+2 0.456558 0.613350 0.799190 0.000000
O340  O     O_2   0.430106 0.604696 0.776428 0.000000
O341  O     O_2   0.452890 0.668042 0.823935 0.000000
O342  O     O_3   0.459737 0.566961 0.840703 0.000000
H792  H     H_    0.603748 0.643643 0.761770 0.000000
H793  H     H_    0.589429 0.706632 0.743203 0.000000
H794  H     H_    0.601277 0.656846 0.701415 0.000000
H795  H     H_    0.581841 0.556361 0.720674 0.000000
H796  H     H_    0.539385 0.508958 0.728409 0.000000
H797  H     H_    0.543583 0.708343 0.752636 0.000000
H798  H     H_    0.478404 0.556626 0.839514 0.000000
C913  C     C_3   0.555540 0.928905 0.931068 0.000000
C914  C     C_R   0.543340 0.881770 0.906194 0.000000
C915  C     C_R   0.544025 0.879255 0.858738 0.000000
C916  C     C_R   0.531904 0.837102 0.834549 0.000000
C917  C     C_R   0.517262 0.800879 0.858532 0.000000
N229  N     N_R   0.504242 0.756453 0.842092 0.000000
C918  C     C_R   0.502460 0.726406 0.880894 0.000000
N230  N     N_R   0.510394 0.752185 0.920301 0.000000
C919  C     C_R   0.519195 0.799981 0.905153 0.000000
C920  C     C_R   0.532063 0.839927 0.929989 0.000000
S115  S     S_3+2 0.499495 0.656624 0.878621 0.000000
O343  O     O_2   0.507186 0.680444 0.833431 0.000000
O344  O     O_2   0.476892 0.693048 0.895555 0.000000
O345  O     O_3   0.526217 0.674874 0.910369 0.000000
H799  H     H_    0.576115 0.933235 0.919763 0.000000
H800  H     H_    0.555008 0.922906 0.968438 0.000000
H801  H     H_    0.544560 0.966549 0.923099 0.000000
H802  H     H_    0.554223 0.910375 0.840472 0.000000
H803  H     H_    0.533528 0.833744 0.797910 0.000000
H804  H     H_    0.533190 0.838494 0.966690 0.000000
H805  H     H_    0.541243 0.662475 0.891559 0.000000
C921  C     C_3   0.485650 0.979494 0.816850 0.000000
C922  C     C_R   0.484023 0.943179 0.775412 0.000000
C923  C     C_R   0.480661 0.966240 0.733631 0.000000
C924  C     C_R   0.481972 0.934450 0.694238 0.000000
C925  C     C_R   0.489783 0.881142 0.697713 0.000000
N231  N     N_R   0.496775 0.845796 0.664028 0.000000
C926  C     C_R   0.505407 0.800989 0.687755 0.000000
N232  N     N_R   0.498008 0.803808 0.732898 0.000000
C927  C     C_R   0.491094 0.856993 0.738615 0.000000
C928  C     C_R   0.487078 0.887491 0.778121 0.000000
S116  S     S_3+2 0.539547 0.783956 0.680043 0.000000
O346  O     O_2   0.551440 0.818634 0.642942 0.000000
O347  O     O_2   0.545663 0.726269 0.661327 0.000000
O348  O     O_3   0.560476 0.795753 0.725205 0.000000
H806  H     H_    0.501291 0.010008 0.811876 0.000000
H807  H     H_    0.490730 0.955848 0.847263 0.000000
H808  H     H_    0.466718 0.001082 0.821967 0.000000
H809  H     H_    0.477842 0.009525 0.732251 0.000000
H810  H     H_    0.477687 0.952222 0.662107 0.000000
H811  H     H_    0.489066 0.870846 0.810668 0.000000
H812  H     H_    0.566575 0.833595 0.721453 0.000000
C929  C     C_3   0.263140 0.656330 0.700231 0.000000
C930  C     C_R   0.287596 0.627676 0.713441 0.000000
C931  C     C_R   0.287076 0.571552 0.718361 0.000000
C932  C     C_R   0.309407 0.543839 0.731357 0.000000
C933  C     C_R   0.331733 0.573664 0.738964 0.000000
N233  N     N_R   0.354409 0.555541 0.756134 0.000000
C934  C     C_R   0.367160 0.602709 0.768560 0.000000
N234  N     N_R   0.354487 0.649247 0.754909 0.000000
C935  C     C_R   0.332000 0.628985 0.736781 0.000000
C936  C     C_R   0.310336 0.656992 0.722421 0.000000
S117  S     S_3+2 0.380542 0.604168 0.823012 0.000000
O349  O     O_2   0.376742 0.552786 0.850304 0.000000
O350  O     O_2   0.358961 0.638411 0.845028 0.000000
O351  O     O_3   0.406005 0.639762 0.844841 0.000000
H813  H     H_    0.256661 0.640783 0.666127 0.000000
H814  H     H_    0.266617 0.700798 0.699332 0.000000
H815  H     H_    0.247649 0.648431 0.725675 0.000000
H816  H     H_    0.269070 0.549393 0.712190 0.000000
H817  H     H_    0.309156 0.500372 0.736327 0.000000
H818  H     H_    0.311090 0.700126 0.717690 0.000000
H819  H     H_    0.405582 0.671363 0.825118 0.000000
C937  C     C_3   0.403184 0.298152 0.857594 0.000000
C938  C     C_R   0.415077 0.353123 0.853914 0.000000
C939  C     C_R   0.441670 0.359339 0.859595 0.000000
C940  C     C_R   0.453434 0.406086 0.845324 0.000000
C941  C     C_R   0.438957 0.441863 0.820505 0.000000
N235  N     N_R   0.447427 0.476848 0.789180 0.000000
C942  C     C_R   0.424226 0.494442 0.770479 0.000000
N236  N     N_R   0.402014 0.472705 0.789352 0.000000
C943  C     C_R   0.412359 0.438983 0.820197 0.000000
C944  C     C_R   0.400101 0.397121 0.840954 0.000000
S118  S     S_3+2 0.425062 0.510043 0.713393 0.000000
O352  O     O_2   0.437840 0.562802 0.699202 0.000000
O353  O     O_2   0.399448 0.506150 0.686534 0.000000
O354  O     O_3   0.445123 0.462047 0.690679 0.000000
H820  H     H_    0.409872 0.278576 0.889140 0.000000
H821  H     H_    0.409750 0.272318 0.828092 0.000000
H822  H     H_    0.381492 0.301180 0.856676 0.000000
H823  H     H_    0.453421 0.326763 0.873057 0.000000
H824  H     H_    0.473811 0.409824 0.848936 0.000000
H825  H     H_    0.379372 0.396077 0.843790 0.000000
H826  H     H_    0.443541 0.431291 0.711640 0.000000
C945  C     C_3   0.345975 0.201428 0.710991 0.000000
C946  C     C_R   0.353095 0.260195 0.710793 0.000000
C947  C     C_R   0.361653 0.285803 0.750525 0.000000
C948  C     C_R   0.364950 0.341482 0.751901 0.000000
C949  C     C_R   0.360250 0.370505 0.713867 0.000000
N237  N     N_R   0.358334 0.425139 0.710358 0.000000
C950  C     C_R   0.355077 0.429571 0.663172 0.000000
N238  N     N_R   0.356556 0.379894 0.638863 0.000000
C951  C     C_R   0.356964 0.344257 0.673004 0.000000
C952  C     C_R   0.350812 0.289603 0.671468 0.000000
S119  S     S_3+2 0.343906 0.491086 0.636721 0.000000
O355  O     O_2   0.354850 0.543494 0.658756 0.000000
O356  O     O_2   0.314307 0.499685 0.642815 0.000000
O357  O     O_3   0.348537 0.500936 0.580178 0.000000
H827  H     H_    0.363282 0.177193 0.721375 0.000000
H828  H     H_    0.339415 0.187190 0.676544 0.000000
H829  H     H_    0.329872 0.195585 0.735726 0.000000
H830  H     H_    0.363713 0.263013 0.781354 0.000000
H831  H     H_    0.368735 0.362002 0.782831 0.000000
H832  H     H_    0.342843 0.270198 0.641719 0.000000
H833  H     H_    0.355226 0.538720 0.579938 0.000000
C953  C     C_3   0.296999 0.262154 0.889500 0.000000
C954  C     C_R   0.308307 0.313144 0.871763 0.000000
C955  C     C_R   0.308596 0.321121 0.824918 0.000000
C956  C     C_R   0.318659 0.368553 0.807465 0.000000
C957  C     C_R   0.329790 0.405797 0.837423 0.000000
N239  N     N_R   0.338888 0.456045 0.828254 0.000000
C958  C     C_R   0.336314 0.482396 0.870596 0.000000
N240  N     N_R   0.331766 0.447353 0.905699 0.000000
C959  C     C_R   0.327187 0.399899 0.883422 0.000000
C960  C     C_R   0.316999 0.353835 0.901781 0.000000
S120  S     S_3+2 0.320227 0.547881 0.874314 0.000000
O358  O     O_2   0.335879 0.589456 0.902540 0.000000
O359  O     O_2   0.295599 0.545842 0.903849 0.000000
O360  O     O_3   0.309638 0.581817 0.827582 0.000000
H834  H     H_    0.276252 0.258525 0.878362 0.000000
H835  H     H_    0.297910 0.262767 0.927350 0.000000
H836  H     H_    0.308318 0.226668 0.875830 0.000000
H837  H     H_    0.300337 0.290515 0.801869 0.000000
H838  H     H_    0.316870 0.376695 0.771564 0.000000
H839  H     H_    0.314977 0.350701 0.938347 0.000000
H840  H     H_    0.290299 0.578549 0.828403 0.000000
C961  C     C_3   0.195331 0.675988 0.902297 0.000000
C962  C     C_R   0.219676 0.681653 0.930171 0.000000
C963  C     C_R   0.243798 0.665942 0.911854 0.000000
C964  C     C_R   0.266668 0.677204 0.935754 0.000000
C965  C     C_R   0.264382 0.702961 0.977835 0.000000
N241  N     N_R   0.283180 0.729478 0.001958 0.000000
C966  C     C_R   0.268699 0.755340 0.036002 0.000000
N242  N     N_R   0.243586 0.733613 0.040280 0.000000
C967  C     C_R   0.240815 0.707984 0.999302 0.000000
C968  C     C_R   0.218088 0.702567 0.974592 0.000000
S121  S     S_3+2 0.271109 0.828860 0.035688 0.000000
O361  O     O_2   0.299698 0.846884 0.038348 0.000000
O362  O     O_2   0.259470 0.860817 0.076630 0.000000
O363  O     O_3   0.259486 0.860791 0.988365 0.000000
H841  H     H_    0.199935 0.658410 0.867951 0.000000
H842  H     H_    0.186251 0.716714 0.898579 0.000000
H843  H     H_    0.181367 0.648930 0.919582 0.000000
H844  H     H_    0.245018 0.648083 0.877754 0.000000
H845  H     H_    0.285585 0.668452 0.920754 0.000000
H846  H     H_    0.199795 0.718195 0.988012 0.000000
H847  H     H_    0.242015 0.844463 0.982832 0.000000
C969  C     C_3   0.611426 0.420497 0.850115 0.000000
C970  C     C_R   0.607340 0.426795 0.900283 0.000000
C971  C     C_R   0.628875 0.429337 0.928864 0.000000
C972  C     C_R   0.625608 0.436900 0.975265 0.000000
C973  C     C_R   0.600601 0.437976 0.992857 0.000000
N243  N     N_R   0.593242 0.448276 0.036543 0.000000
C974  C     C_R   0.566431 0.454115 0.032330 0.000000
N244  N     N_R   0.556979 0.446407 0.988739 0.000000
C975  C     C_R   0.579210 0.436003 0.964687 0.000000
C976  C     C_R   0.582392 0.432504 0.918167 0.000000
S122  S     S_3+2 0.546526 0.478274 0.077597 0.000000
O364  O     O_2   0.526734 0.434773 0.090828 0.000000
O365  O     O_2   0.528345 0.525588 0.065703 0.000000
O366  O     O_3   0.562649 0.499190 0.126234 0.000000
H848  H     H_    0.622697 0.455759 0.837938 0.000000
H849  H     H_    0.592380 0.418234 0.831949 0.000000
H850  H     H_    0.622589 0.382426 0.842704 0.000000
H851  H     H_    0.648380 0.427622 0.914649 0.000000
H852  H     H_    0.642598 0.443491 0.995963 0.000000
H853  H     H_    0.566305 0.436824 0.895778 0.000000
H854  H     H_    0.558567 0.538527 0.129510 0.000000
C977  C     C_3   0.423413 0.530192 0.909289 0.000000
C978  C     C_R   0.445204 0.557996 0.934291 0.000000
C979  C     C_R   0.442188 0.612037 0.947715 0.000000
C980  C     C_R   0.462225 0.640334 0.968886 0.000000
C981  C     C_R   0.485344 0.613716 0.974649 0.000000
N245  N     N_R   0.508775 0.635952 0.984191 0.000000
C982  C     C_R   0.524725 0.590669 0.985955 0.000000
N246  N     N_R   0.511914 0.541975 0.975778 0.000000
C983  C     C_R   0.487639 0.559305 0.966128 0.000000
C984  C     C_R   0.468244 0.530449 0.943963 0.000000
S123  S     S_3+2 0.559069 0.597721 0.996051 0.000000
O367  O     O_2   0.571612 0.629030 0.957674 0.000000
O368  O     O_2   0.574777 0.545733 0.989980 0.000000
O369  O     O_3   0.570459 0.626252 0.046061 0.000000
H855  H     H_    0.404896 0.535235 0.928353 0.000000
H856  H     H_    0.427907 0.486464 0.904040 0.000000
H857  H     H_    0.420685 0.548349 0.876013 0.000000
H858  H     H_    0.424363 0.632793 0.940287 0.000000
H859  H     H_    0.460246 0.682918 0.977650 0.000000
H860  H     H_    0.471005 0.488113 0.934029 0.000000
H861  H     H_    0.568125 0.597663 0.068727 0.000000
C985  C     C_3   0.603866 0.731158 0.857959 0.000000
C986  C     C_R   0.601161 0.729209 0.908504 0.000000
C987  C     C_R   0.622982 0.718482 0.934975 0.000000
C988  C     C_R   0.620841 0.716992 0.981879 0.000000
C989  C     C_R   0.596827 0.727148 0.001510 0.000000
N247  N     N_R   0.591010 0.731171 0.046348 0.000000
C990  C     C_R   0.564005 0.739365 0.045540 0.000000
N248  N     N_R   0.553424 0.735986 0.002575 0.000000
C991  C     C_R   0.574980 0.734229 0.975674 0.000000
C992  C     C_R   0.576907 0.736760 0.928771 0.000000
S124  S     S_3+2 0.546987 0.781652 0.085791 0.000000
O370  O     O_2   0.565576 0.820550 0.110861 0.000000
O371  O     O_2   0.532986 0.754258 0.125216 0.000000
O372  O     O_3   0.524489 0.824406 0.062119 0.000000
H862  H     H_    0.617826 0.763826 0.849385 0.000000
H863  H     H_    0.584636 0.739521 0.841746 0.000000
H864  H     H_    0.611451 0.691431 0.844616 0.000000
H865  H     H_    0.641796 0.711684 0.918885 0.000000
H866  H     H_    0.637804 0.708982 0.002219 0.000000
H867  H     H_    0.560459 0.744275 0.907534 0.000000
H868  H     H_    0.535226 0.851140 0.045935 0.000000
C993  C     C_3   0.418627 0.651908 0.054210 0.000000
C994  C     C_R   0.398208 0.622690 0.027290 0.000000
C995  C     C_R   0.397836 0.567073 0.027778 0.000000
C996  C     C_R   0.378397 0.537793 0.005918 0.000000
C997  C     C_R   0.356918 0.565443 0.991638 0.000000
N249  N     N_R   0.332717 0.544821 0.986315 0.000000
C998  C     C_R   0.317361 0.591324 0.990485 0.000000
N250  N     N_R   0.331597 0.639577 0.990283 0.000000
C999  C     C_R   0.356342 0.620858 0.993533 0.000000
C1000 C     C_R   0.377861 0.650138 0.007330 0.000000
S125  S     S_3+2 0.286583 0.587535 0.018921 0.000000
O373  O     O_2   0.262783 0.583737 0.987223 0.000000
O374  O     O_2   0.280942 0.638294 0.048800 0.000000
O375  O     O_3   0.282025 0.537955 0.056878 0.000000
H869  H     H_    0.417470 0.696202 0.048259 0.000000
H870  H     H_    0.438253 0.635907 0.045461 0.000000
H871  H     H_    0.415593 0.643469 0.090705 0.000000
H872  H     H_    0.412286 0.547243 0.047559 0.000000
H873  H     H_    0.378855 0.494611 0.005399 0.000000
H874  H     H_    0.377555 0.693283 0.007753 0.000000
H875  H     H_    0.292543 0.550700 0.083263 0.000000
C1001 C     C_3   0.192323 0.475004 0.902286 0.000000
C1002 C     C_R   0.218366 0.468075 0.924550 0.000000
C1003 C     C_R   0.241057 0.464281 0.898592 0.000000
C1004 C     C_R   0.265119 0.456222 0.919324 0.000000
C1005 C     C_R   0.266226 0.454185 0.966130 0.000000
N251  N     N_R   0.287088 0.442843 0.992853 0.000000
C1006 C     C_R   0.275189 0.431263 0.033976 0.000000
N252  N     N_R   0.248654 0.443454 0.034739 0.000000
C1007 C     C_R   0.243814 0.456015 0.991160 0.000000
C1008 C     C_R   0.219719 0.463198 0.971340 0.000000
S126  S     S_3+2 0.287973 0.378302 0.068863 0.000000
O376  O     O_2   0.306436 0.341040 0.040680 0.000000
O377  O     O_2   0.265984 0.337711 0.078554 0.000000
O378  O     O_3   0.303511 0.388369 0.120503 0.000000
H876  H     H_    0.194568 0.476977 0.864733 0.000000
H877  H     H_    0.183026 0.513226 0.915395 0.000000
H878  H     H_    0.179610 0.440011 0.910350 0.000000
H879  H     H_    0.240063 0.466214 0.861802 0.000000
H880  H     H_    0.282075 0.449753 0.898453 0.000000
H881  H     H_    0.202153 0.462973 0.991339 0.000000
H882  H     H_    0.305056 0.428179 0.124621 0.000000
C1009 C     C_3   0.101684 0.155697 0.484627 0.000000
C1010 C     C_R   0.101682 0.181785 0.439535 0.000000
C1011 C     C_R   0.125079 0.193127 0.417907 0.000000
C1012 C     C_R   0.124781 0.210642 0.373530 0.000000
C1013 C     C_R   0.101166 0.221837 0.353482 0.000000
N253  N     N_R   0.096106 0.230383 0.308909 0.000000
C1014 C     C_R   0.069071 0.234722 0.308537 0.000000
N254  N     N_R   0.057705 0.231131 0.351456 0.000000
C1015 C     C_R   0.078565 0.219793 0.377855 0.000000
C1016 C     C_R   0.078105 0.193494 0.418626 0.000000
S127  S     S_3+2 0.051053 0.218738 0.257538 0.000000
O379  O     O_2   0.023376 0.241382 0.261950 0.000000
O380  O     O_2   0.044955 0.157752 0.251799 0.000000
O381  O     O_3   0.061585 0.236940 0.204793 0.000000
H883  H     H_    0.092250 0.115266 0.480931 0.000000
H884  H     H_    0.090489 0.181576 0.509396 0.000000
H885  H     H_    0.122026 0.150431 0.497252 0.000000
H886  H     H_    0.143641 0.184308 0.434066 0.000000
H887  H     H_    0.142688 0.216086 0.355556 0.000000
H888  H     H_    0.059886 0.180882 0.433529 0.000000
H889  H     H_    0.067007 0.202102 0.189745 0.000000
C1017 C     C_3   0.285711 0.566049 0.172947 0.000000
C1018 C     C_R   0.278987 0.507808 0.180113 0.000000
C1019 C     C_R   0.288073 0.478815 0.216872 0.000000
C1020 C     C_R   0.277502 0.428911 0.227654 0.000000
C1021 C     C_R   0.256396 0.411517 0.203038 0.000000
N255  N     N_R   0.240853 0.367952 0.209141 0.000000
C1022 C     C_R   0.226163 0.367860 0.169436 0.000000
N256  N     N_R   0.231172 0.410965 0.141418 0.000000
C1023 C     C_R   0.250374 0.436451 0.163761 0.000000
C1024 C     C_R   0.262233 0.482560 0.150283 0.000000
S128  S     S_3+2 0.211321 0.307643 0.149192 0.000000
O382  O     O_2   0.206859 0.307853 0.097902 0.000000
O383  O     O_2   0.183546 0.298778 0.167406 0.000000
O384  O     O_3   0.229514 0.249771 0.155558 0.000000
H890  H     H_    0.284096 0.590363 0.204997 0.000000
H891  H     H_    0.271869 0.583888 0.148259 0.000000
H892  H     H_    0.305731 0.569751 0.159757 0.000000
H893  H     H_    0.302453 0.496374 0.238664 0.000000
H894  H     H_    0.285488 0.404801 0.254149 0.000000
H895  H     H_    0.257535 0.499861 0.118358 0.000000
H896  H     H_    0.236855 0.241757 0.124820 0.000000
C1025 C     C_3   0.219790 0.271873 0.962901 0.000000
C1026 C     C_R   0.198416 0.300541 0.988544 0.000000
C1027 C     C_R   0.173680 0.277969 0.989567 0.000000
C1028 C     C_R   0.153843 0.303219 0.014301 0.000000
C1029 C     C_R   0.158505 0.352675 0.036289 0.000000
N257  N     N_R   0.142174 0.384729 0.062213 0.000000
C1030 C     C_R   0.158937 0.424270 0.079113 0.000000
N258  N     N_R   0.184483 0.417665 0.064586 0.000000
C1031 C     C_R   0.183104 0.373683 0.036296 0.000000
C1032 C     C_R   0.203415 0.348250 0.012970 0.000000
S129  S     S_3+2 0.148364 0.478184 0.117248 0.000000
O385  O     O_2   0.120610 0.497970 0.107029 0.000000
O386  O     O_2   0.163097 0.530926 0.109421 0.000000
O387  O     O_3   0.149350 0.469380 0.175019 0.000000
H897  H     H_    0.222804 0.230867 0.976992 0.000000
H898  H     H_    0.238326 0.295231 0.965837 0.000000
H899  H     H_    0.214189 0.267597 0.926351 0.000000
H900  H     H_    0.169885 0.239769 0.971520 0.000000
H901  H     H_    0.135366 0.283680 0.015003 0.000000
H902  H     H_    0.223137 0.362417 0.015970 0.000000
H903  H     H_    0.155414 0.431309 0.178247 0.000000
C1033 C     C_3   0.182891 0.519293 0.253419 0.000000
C1034 C     C_R   0.197372 0.547348 0.216824 0.000000
C1035 C     C_R   0.201597 0.602522 0.221021 0.000000
C1036 C     C_R   0.212784 0.630756 0.185793 0.000000
C1037 C     C_R   0.215833 0.604932 0.144852 0.000000
N259  N     N_R   0.216420 0.627586 0.103329 0.000000
C1038 C     C_R   0.214315 0.581460 0.074677 0.000000
N260  N     N_R   0.214963 0.533074 0.097813 0.000000
C1039 C     C_R   0.213594 0.550116 0.141501 0.000000
C1040 C     C_R   0.204733 0.519961 0.177243 0.000000
S130  S     S_3+2 0.196097 0.583010 0.022260 0.000000
O388  O     O_2   0.212382 0.580856 0.978475 0.000000
O389  O     O_2   0.181633 0.637312 0.018290 0.000000
O390  O     O_3   0.171555 0.536167 0.013695 0.000000
H904  H     H_    0.190925 0.531744 0.287318 0.000000
H905  H     H_    0.184561 0.474445 0.248568 0.000000
H906  H     H_    0.161946 0.531517 0.252299 0.000000
H907  H     H_    0.194881 0.623758 0.251505 0.000000
H908  H     H_    0.217208 0.672543 0.188855 0.000000
H909  H     H_    0.199723 0.477787 0.172274 0.000000
H910  H     H_    0.157733 0.556130 0.997187 0.000000
C1041 C     C_3   0.598098 0.920309 0.562465 0.000000
C1042 C     C_R   0.580609 0.876713 0.543662 0.000000
C1043 C     C_R   0.589570 0.842071 0.509027 0.000000
C1044 C     C_R   0.573393 0.802028 0.490893 0.000000
C1045 C     C_R   0.548578 0.796760 0.508616 0.000000
N261  N     N_R   0.529740 0.761474 0.495257 0.000000
C1046 C     C_R   0.509860 0.773350 0.526788 0.000000
N262  N     N_R   0.514233 0.820213 0.552189 0.000000
C1047 C     C_R   0.539442 0.831648 0.541744 0.000000
C1048 C     C_R   0.555303 0.871694 0.559809 0.000000
S131  S     S_3+2 0.496641 0.721019 0.560837 0.000000
O391  O     O_2   0.469069 0.727129 0.581215 0.000000
O392  O     O_2   0.508535 0.748384 0.602949 0.000000
O393  O     O_3   0.510588 0.659825 0.574213 0.000000
H911  H     H_    0.615897 0.901521 0.577246 0.000000
H912  H     H_    0.587847 0.944757 0.589421 0.000000
H913  H     H_    0.603880 0.947373 0.534569 0.000000
H914  H     H_    0.609099 0.846966 0.495507 0.000000
H915  H     H_    0.580182 0.777350 0.462698 0.000000
H916  H     H_    0.548429 0.898079 0.586109 0.000000
H917  H     H_    0.514651 0.663437 0.607219 0.000000
C1049 C     C_3   0.443982 0.646375 0.517253 0.000000
C1050 C     C_R   0.448715 0.671607 0.472451 0.000000
C1051 C     C_R   0.429599 0.665084 0.439601 0.000000
C1052 C     C_R   0.433049 0.685537 0.396818 0.000000
C1053 C     C_R   0.454463 0.714368 0.388144 0.000000
N263  N     N_R   0.460021 0.738912 0.348939 0.000000
C1054 C     C_R   0.485773 0.754008 0.357455 0.000000
N264  N     N_R   0.495291 0.738188 0.399158 0.000000
C1055 C     C_R   0.474334 0.716482 0.418140 0.000000
C1056 C     C_R   0.472356 0.695049 0.460273 0.000000
S132  S     S_3+2 0.508461 0.766757 0.314685 0.000000
O394  O     O_2   0.501321 0.744799 0.266757 0.000000
O395  O     O_2   0.530644 0.727805 0.326068 0.000000
O396  O     O_3   0.523715 0.828286 0.310783 0.000000
H918  H     H_    0.427997 0.668382 0.535659 0.000000
H919  H     H_    0.461543 0.644591 0.538539 0.000000
H920  H     H_    0.438496 0.603776 0.511310 0.000000
H921  H     H_    0.412203 0.643542 0.447994 0.000000
H922  H     H_    0.420373 0.679395 0.369446 0.000000
H923  H     H_    0.489893 0.690615 0.479140 0.000000
H924  H     H_    0.511897 0.854303 0.327135 0.000000

loop_
_geom_bond_atom_site_label_1
_geom_bond_atom_site_label_2
_geom_bond_distance
_geom_bond_site_symmetry_2
_ccdc_geom_bond_type
Zn1   N2    2.068 .      S
Zn1   N7    2.110 .      S
Zn1   N32   2.111 .      S
Zn1   N99   2.186 1_565  S
Zn2   N3    2.182 .      S
Zn2   N6    2.130 .      S
Zn2   N8    2.120 .      S
Zn2   N176  2.204 .      S
Zn3   N10   2.160 .      S
Zn3   N12   2.120 .      S
Zn3   N13   2.171 1_565  S
Zn3   N79   2.138 .      S
Zn4   N15   2.085 .      S
Zn4   N17   2.127 .      S
Zn4   N54   2.058 .      S
Zn4   N133  2.025 .      S
Zn5   N20   2.076 .      S
Zn5   N21   2.105 .      S
Zn5   N24   2.161 .      S
Zn5   N223  2.046 .      S
Zn6   N26   2.107 .      S
Zn6   N222  2.135 .      S
Zn6   N231  2.067 .      S
Zn6   N262  2.112 .      S
Zn7   N33   2.118 .      S
Zn7   N180  2.169 .      S
Zn7   N184  2.042 1_565  S
Zn7   N213  2.057 .      S
Zn8   N25   2.121 .      S
Zn8   N27   2.193 .      S
Zn8   N49   2.176 .      S
Zn8   N204  2.013 .      S
Zn9   N5    2.063 .      S
Zn9   N28   2.123 .      S
Zn9   N92   2.189 .      S
Zn9   N163  2.141 .      S
Zn10  N19   2.069 .      S
Zn10  N109  2.139 .      S
Zn10  N131  1.992 .      S
Zn10  N263  2.109 .      S
Zn11  N29   2.223 .      S
Zn11  N78   2.202 .      S
Zn11  N141  2.170 .      S
Zn11  N182  2.231 .      S
Zn12  N30   2.144 .      S
Zn12  N127  2.160 .      S
Zn12  N150  2.136 .      S
Zn12  N153  2.156 .      S
Zn13  N31   2.098 .      S
Zn13  N72   2.123 .      S
Zn13  N158  2.132 .      S
Zn13  N177  2.036 .      S
Zn14  N34   2.148 .      S
Zn14  N36   2.116 .      S
Zn14  N37   2.105 .      S
Zn14  N192  2.068 .      S
Zn15  N40   2.138 .      S
Zn15  N58   2.117 .      S
Zn15  N186  2.126 .      S
Zn15  N194  2.103 .      S
Zn16  N35   2.207 .      S
Zn16  N42   2.105 1_655  S
Zn16  N210  2.078 .      S
Zn16  N216  2.166 .      S
Zn17  N43   2.115 .      S
Zn17  N51   2.234 .      S
Zn17  N206  2.108 .      S
Zn17  N238  2.135 .      S
Zn18  N46   2.105 1_655  S
Zn18  N47   2.015 .      S
Zn18  N188  2.034 .      S
Zn18  N218  2.072 .      S
Zn19  N50   2.130 .      S
Zn19  N52   2.133 .      S
Zn19  N53   2.085 .      S
Zn19  N89   2.097 .      S
Zn20  N23   2.104 .      S
Zn20  N44   2.072 .      S
Zn20  N56   2.224 .      S
Zn20  N136  2.100 .      S
Zn21  N48   2.037 .      S
Zn21  N57   2.116 .      S
Zn21  N60   2.120 1_655  S
Zn21  N211  2.107 1_655  S
Zn22  N39   2.189 .      S
Zn22  N61   2.144 .      S
Zn22  N70   2.132 .      S
Zn22  N117  2.127 .      S
Zn23  N41   2.065 .      S
Zn23  N63   2.277 .      S
Zn23  N66   2.118 1_565  S
Zn23  N138  2.107 1_455  S
Zn24  N59   2.128 .      S
Zn24  N65   2.053 .      S
Zn24  N68   2.077 .      S
Zn24  N120  2.139 1_455  S
Zn25  N38   2.097 .      S
Zn25  N69   2.108 1_565  S
Zn25  N71   2.083 .      S
Zn25  N139  2.080 1_556  S
Zn26  N73   2.145 .      S
Zn26  N76   2.105 .      S
Zn26  N123  2.253 .      S
Zn26  N189  2.096 .      S
Zn27  N77   2.130 1_455  S
Zn27  N80   2.099 .      S
Zn27  N81   2.147 1_565  S
Zn27  N220  2.094 .      S
Zn28  N83   2.044 .      S
Zn28  N85   2.162 .      S
Zn28  N242  2.198 .      S
Zn28  N259  2.141 .      S
Zn29  N87   2.089 .      S
Zn29  N90   2.104 .      S
Zn29  N227  2.086 .      S
Zn29  N235  2.112 .      S
Zn30  N91   2.152 .      S
Zn30  N94   2.196 .      S
Zn30  N95   2.159 .      S
Zn30  N97   2.252 .      S
Zn31  N75   2.172 .      S
Zn31  N100  2.183 .      S
Zn31  N101  2.114 .      S
Zn31  N104  2.044 .      S
Zn32  N96   2.239 .      S
Zn32  N105  2.176 .      S
Zn32  N108  2.182 .      S
Zn32  N110  2.030 .      S
Zn33  N98   2.247 .      S
Zn33  N112  2.199 .      S
Zn33  N114  2.228 .      S
Zn33  N116  2.149 .      S
Zn34  N118  2.252 .      S
Zn34  N119  2.208 .      S
Zn34  N121  2.021 .      S
Zn34  N125  2.141 .      S
Zn35  N124  2.196 .      S
Zn35  N126  2.053 .      S
Zn35  N128  2.235 .      S
Zn35  N130  2.164 .      S
Zn36  N115  2.083 .      S
Zn36  N132  2.055 .      S
Zn36  N134  2.110 .      S
Zn36  N135  2.121 .      S
Zn37  N122  2.017 1_565  S
Zn37  N137  2.157 .      S
Zn37  N140  2.132 .      S
Zn37  N142  2.124 .      S
Zn38  N144  2.142 .      S
Zn38  N145  2.110 1_554  S
Zn38  N148  2.106 .      S
Zn38  N149  2.224 1_455  S
Zn39  N151  2.133 1_554  S
Zn39  N154  2.143 .      S
Zn39  N156  2.101 .      S
Zn39  N157  2.053 .      S
Zn40  N14   2.234 .      S
Zn40  N159  2.126 .      S
Zn40  N162  2.211 .      S
Zn40  N253  2.099 .      S
Zn41  N18   2.127 .      S
Zn41  N103  2.055 .      S
Zn41  N164  2.132 .      S
Zn41  N172  2.143 .      S
Zn42  N165  2.176 .      S
Zn42  N168  2.119 .      S
Zn42  N225  2.066 .      S
Zn42  N234  2.088 .      S
Zn43  N170  2.068 .      S
Zn43  N171  2.135 .      S
Zn43  N173  2.140 .      S
Zn43  N243  2.078 .      S
Zn44  N174  2.166 .      S
Zn44  N175  2.059 .      S
Zn44  N178  2.077 .      S
Zn44  N247  2.083 .      S
Zn45  N1    2.054 .      S
Zn45  N74   2.098 1_565  S
Zn45  N179  2.132 .      S
Zn45  N181  2.262 .      S
Zn46  N183  2.135 .      S
Zn46  N185  2.173 .      S
Zn46  N187  2.177 .      S
Zn46  N190  2.119 .      S
Zn47  N152  2.226 .      S
Zn47  N191  2.107 .      S
Zn47  N193  2.125 .      S
Zn47  N195  2.148 .      S
Zn48  N93   2.172 .      S
Zn48  N198  2.224 .      S
Zn48  N199  2.154 .      S
Zn48  N202  2.102 .      S
Zn49  N200  2.230 .      S
Zn49  N203  2.030 .      S
Zn49  N205  2.122 .      S
Zn49  N207  2.272 .      S
Zn50  N146  2.195 1_655  S
Zn50  N196  2.067 .      S
Zn50  N209  2.121 .      S
Zn50  N212  2.135 1_655  S
Zn51  N214  2.180 .      S
Zn51  N215  2.112 .      S
Zn51  N217  2.104 1_565  S
Zn51  N219  2.181 .      S
Zn52  N167  2.081 .      S
Zn52  N208  2.188 .      S
Zn52  N221  2.165 .      S
Zn52  N224  2.050 .      S
Zn53  N226  2.101 .      S
Zn53  N228  2.148 .      S
Zn53  N229  2.129 .      S
Zn53  N232  2.083 .      S
Zn54  N233  2.034 .      S
Zn54  N236  2.086 .      S
Zn54  N237  2.151 .      S
Zn54  N239  2.153 .      S
Zn55  N106  2.158 1_556  S
Zn55  N166  2.159 .      S
Zn55  N241  2.094 1_556  S
Zn55  N250  2.108 .      S
Zn56  N88   2.109 .      S
Zn56  N111  2.221 1_556  S
Zn56  N244  2.060 .      S
Zn56  N246  2.057 .      S
Zn57  N107  2.062 1_556  S
Zn57  N230  2.050 .      S
Zn57  N245  2.103 .      S
Zn57  N248  2.072 1_556  S
Zn58  N113  2.138 1_556  S
Zn58  N240  2.057 .      S
Zn58  N249  2.124 .      S
Zn58  N251  2.107 .      S
Zn59  N67   2.117 .      S
Zn59  N147  2.177 .      S
Zn59  N161  2.155 .      S
Zn59  N257  2.077 .      S
Zn60  N11   2.098 .      S
Zn60  N22   2.132 .      S
Zn60  N86   2.190 .      S
Zn60  N201  2.199 .      S
Zn61  N62   2.128 .      S
Zn61  N102  2.098 .      S
Zn61  N155  2.136 .      S
Zn61  N169  2.053 .      S
Zn62  N45   2.139 .      S
Zn62  N82   2.066 .      S
Zn62  N129  2.136 1_455  S
Zn62  N254  2.083 .      S
Zn63  N55   2.166 .      S
Zn63  N160  2.107 .      S
Zn63  N197  2.107 .      S
Zn63  N255  2.123 .      S
Zn64  N252  2.076 .      S
Zn64  N256  2.058 .      S
Zn64  N258  2.024 .      S
Zn64  N260  2.073 .      S
Zn65  N9    2.106 .      S
Zn65  N64   2.156 .      S
Zn65  N84   2.087 .      S
Zn65  N143  2.110 .      S
Zn66  N4    2.148 .      S
Zn66  N16   2.154 .      S
Zn66  N261  2.123 .      S
Zn66  N264  2.037 .      S
C1    C2    1.488 .      S
C1    H1    1.109 .      S
C1    H2    1.109 .      S
C1    H3    1.109 1_565  S
C3    H4    1.081 .      S
C4    H5    1.066 .      S
C6    S1    1.808 .      S
C8    H6    1.071 .      S
S1    O3    1.714 .      S
O3    H7    0.990 .      S
H3    C1    1.109 1_545  S
C9    C10   1.480 .      S
C9    H8    1.107 .      S
C9    H9    1.101 .      S
C9    H10   1.098 .      S
C11   H11   1.079 .      S
C12   H12   1.070 .      S
C14   S2    1.781 .      S
C16   H13   1.079 .      S
S2    O6    1.706 .      S
O6    H14   0.989 .      S
C17   C18   1.488 .      S
C17   H15   1.107 .      S
C17   H16   1.098 .      S
C17   H17   1.109 .      S
C19   H18   1.081 .      S
C20   H19   1.070 .      S
C22   S3    1.791 1_565  S
C24   H20   1.071 .      S
S3    C22   1.791 1_545  S
S3    O9    1.710 .      S
O9    H21   0.990 .      S
C25   C26   1.488 .      S
C25   H22   1.107 .      S
C25   H23   1.109 .      S
C25   H24   1.109 .      S
C27   H25   1.079 .      S
C28   H26   1.065 .      S
C30   S4    1.815 .      S
C32   H27   1.067 .      S
S4    O12   1.715 1_565  S
O12   S4    1.715 1_545  S
O12   H28   0.990 .      S
C33   C34   1.464 .      S
C33   H29   1.104 1_455  S
C33   H30   1.093 .      S
C33   H31   1.102 .      S
C35   H32   1.039 .      S
C36   H33   1.078 .      S
C38   S5    1.701 .      S
C40   H34   1.074 .      S
S5    O15   1.686 .      S
O15   H35   0.986 .      S
H29   C33   1.104 1_655  S
C41   C42   1.487 .      S
C41   H36   1.109 .      S
C41   H37   1.105 .      S
C41   H38   1.109 .      S
C43   H39   1.081 .      S
C44   H40   1.069 .      S
C46   S6    1.806 .      S
C48   H41   1.068 .      S
S6    O18   1.719 .      S
O18   H42   0.986 .      S
C49   C50   1.494 .      S
C49   H43   1.107 .      S
C49   H44   1.103 .      S
C49   H45   1.105 .      S
C51   H46   1.073 .      S
C52   H47   1.061 1_545  S
N13   Zn3   2.171 1_545  S
C54   S7    1.789 .      S
C56   H48   1.060 .      S
S7    O21   1.709 .      S
O21   H49   0.990 .      S
H47   C52   1.061 1_565  S
C57   C58   1.488 .      S
C57   H50   1.109 .      S
C57   H51   1.109 .      S
C57   H52   1.108 .      S
C59   H53   1.081 .      S
C60   H54   1.070 .      S
C62   S8    1.773 .      S
C64   H55   1.065 .      S
S8    O24   1.703 .      S
O24   H56   0.988 .      S
C65   C66   1.488 .      S
C65   H57   1.109 .      S
C65   H58   1.107 .      S
C65   H59   1.108 .      S
C67   H60   1.081 .      S
C68   H61   1.064 .      S
C70   S9    1.785 .      S
C72   H62   1.070 .      S
S9    O27   1.701 .      S
O27   H63   0.985 .      S
C73   C74   1.460 .      S
C73   H64   1.102 .      S
C73   H65   1.103 .      S
C73   H66   1.101 .      S
C75   H67   1.080 .      S
C76   H68   1.076 .      S
C78   S10   1.774 .      S
C80   H69   1.076 .      S
S10   O30   1.705 .      S
O30   H70   0.990 .      S
C81   C82   1.487 .      S
C81   H71   1.109 .      S
C81   H72   1.108 .      S
C81   H73   1.107 .      S
C83   H74   1.076 .      S
C84   H75   1.054 .      S
C86   S11   1.804 .      S
C88   H76   1.054 .      S
S11   O33   1.706 .      S
O33   H77   0.981 .      S
C89   C90   1.435 .      S
C89   H78   1.104 .      S
C89   H79   1.086 .      S
C89   H80   1.099 .      S
C91   H81   1.066 .      S
C92   H82   1.066 .      S
C94   S12   1.799 .      S
C96   H83   1.069 .      S
S12   O36   1.714 .      S
O36   H84   0.989 .      S
C97   C98   1.488 1_565  S
C97   H85   1.109 1_565  S
C97   H86   1.109 .      S
C97   H87   1.109 1_565  S
C98   C97   1.488 1_545  S
C99   H88   1.081 .      S
C100  H89   1.060 .      S
C102  S13   1.792 .      S
C104  H90   1.075 .      S
S13   O39   1.687 .      S
O39   H91   0.985 .      S
H85   C97   1.109 1_545  S
H87   C97   1.109 1_545  S
C105  C106  1.471 .      S
C105  H92   1.106 .      S
C105  H93   1.094 .      S
C105  H94   1.108 .      S
C107  H95   1.078 .      S
C108  H96   1.046 .      S
C110  S14   1.730 .      S
C112  H97   1.065 .      S
S14   O42   1.710 .      S
O42   H98   0.989 .      S
C113  C114  1.486 .      S
C113  H99   1.101 1_655  S
C113  H100  1.107 .      S
C113  H101  1.108 .      S
C115  H102  1.075 1_655  S
C116  H103  1.070 .      S
C118  S15   1.787 .      S
C120  H104  1.073 .      S
S15   O45   1.713 .      S
O45   H105  0.990 .      S
H99   C113  1.101 1_455  S
H102  C115  1.075 1_455  S
C121  C122  1.462 .      S
C121  H106  1.103 .      S
C121  H107  1.105 .      S
C121  H108  1.079 .      S
C123  H109  1.066 .      S
C124  H110  1.073 .      S
C126  S16   1.711 .      S
C128  H111  1.062 .      S
S16   O48   1.713 .      S
O48   H112  0.989 .      S
C129  C130  1.490 .      S
C129  H113  1.107 .      S
C129  H114  1.109 .      S
C129  H115  1.109 .      S
C131  H116  1.081 .      S
C132  H117  1.061 .      S
C134  S17   1.792 .      S
C136  H118  1.075 .      S
S17   O51   1.716 .      S
O51   H119  0.990 .      S
C137  C138  1.485 .      S
C137  H120  1.108 .      S
C137  H121  1.087 .      S
C137  H122  1.096 .      S
C139  H123  1.072 .      S
C140  H124  1.063 .      S
C142  S18   1.689 .      S
C144  H125  1.049 .      S
S18   O54   1.715 .      S
O54   H126  0.990 .      S
C145  C146  1.487 .      S
C145  H127  1.092 .      S
C145  H128  1.108 .      S
C145  H129  1.107 .      S
C147  H130  1.081 .      S
C148  H131  1.068 .      S
C150  S19   1.789 .      S
C152  H132  1.064 .      S
S19   O57   1.714 .      S
O57   H133  0.989 .      S
C153  C154  1.478 .      S
C153  H134  1.108 .      S
C153  H135  1.105 .      S
C153  H136  1.109 .      S
C155  H137  1.078 .      S
C156  H138  1.064 .      S
C158  S20   1.796 .      S
C160  H139  1.076 .      S
S20   O60   1.697 .      S
O60   H140  0.990 .      S
C161  C162  1.488 .      S
C161  H141  1.108 .      S
C161  H142  1.109 .      S
C161  H143  1.109 .      S
C163  H144  1.081 1_565  S
C164  H145  1.080 1_565  S
C166  S21   1.748 1_455  S
N42   Zn16  2.105 1_455  S
C168  H146  1.077 .      S
S21   C166  1.748 1_655  S
S21   O63   1.711 .      S
O63   H147  0.988 1_655  S
H144  C163  1.081 1_545  S
H145  C164  1.080 1_545  S
H147  O63   0.988 1_455  S
C169  C170  1.488 .      S
C169  H148  1.109 .      S
C169  H149  1.109 .      S
C169  H150  1.109 .      S
C171  H151  1.081 .      S
C172  H152  1.079 .      S
C174  S22   1.731 .      S
C176  H153  1.081 .      S
S22   O66   1.673 .      S
O66   H154  0.980 .      S
C177  C178  1.488 .      S
C177  H155  1.109 .      S
C177  H156  1.109 .      S
C177  H157  1.109 .      S
C179  H158  1.081 .      S
C180  H159  1.078 .      S
C182  S23   1.807 .      S
N46   Zn18  2.105 1_455  S
C184  H160  1.077 .      S
S23   O69   1.715 .      S
O69   H161  0.990 .      S
C185  C186  1.489 .      S
C185  H162  1.109 .      S
C185  H163  1.109 .      S
C185  H164  1.109 1_455  S
C187  H165  1.081 .      S
C188  H166  1.068 .      S
C190  S24   1.784 .      S
C192  H167  1.063 1_455  S
S24   O72   1.714 .      S
O72   H168  0.989 1_655  S
H164  C185  1.109 1_655  S
H167  C192  1.063 1_655  S
H168  O72   0.989 1_455  S
C193  C194  1.489 .      S
C193  H169  1.108 .      S
C193  H170  1.109 .      S
C193  H171  1.108 .      S
C195  H172  1.081 .      S
C196  H173  1.081 .      S
C198  S25   1.808 .      S
C200  H174  1.079 .      S
S25   O75   1.710 .      S
O75   H175  0.988 .      S
C201  C202  1.468 .      S
C201  H176  1.103 .      S
C201  H177  1.103 .      S
C201  H178  1.093 .      S
C203  H179  1.070 .      S
C204  H180  1.049 .      S
C206  S26   1.695 .      S
C208  H181  1.062 .      S
S26   O78   1.709 .      S
O78   H182  0.990 .      S
C209  C210  1.488 .      S
C209  H183  1.109 .      S
C209  H184  1.109 .      S
C209  H185  1.109 .      S
C211  H186  1.081 .      S
C212  H187  1.076 .      S
C214  S27   1.753 .      S
C216  H188  1.072 .      S
S27   O81   1.684 .      S
O81   H189  0.981 .      S
C217  C218  1.451 .      S
C217  H190  1.099 .      S
C217  H191  1.102 .      S
C217  H192  1.099 .      S
C219  H193  1.076 .      S
C220  H194  1.064 .      S
C222  S28   1.799 .      S
C224  H195  1.047 .      S
S28   O84   1.716 .      S
O84   H196  0.990 .      S
C225  C226  1.505 .      S
C225  H197  1.109 .      S
C225  H198  1.096 .      S
C225  H199  1.096 .      S
C227  H200  1.068 .      S
C228  H201  1.057 .      S
C230  S29   1.782 .      S
C232  H202  1.070 .      S
S29   O87   1.705 .      S
O87   H203  0.989 .      S
C233  C234  1.476 .      S
C233  H204  1.109 .      S
C233  H205  1.109 .      S
C233  H206  1.106 .      S
C235  H207  1.081 .      S
C236  H208  1.073 .      S
C238  S30   1.758 .      S
N60   Zn21  2.120 1_455  S
C240  H209  1.075 .      S
S30   O90   1.706 .      S
O90   H210  0.990 .      S
C241  C242  1.487 .      S
C241  H211  1.109 .      S
C241  H212  1.108 .      S
C241  H213  1.109 .      S
C243  H214  1.081 .      S
C244  H215  1.081 .      S
C246  S31   1.778 .      S
C248  H216  1.079 .      S
S31   O93   1.696 .      S
O93   H217  0.982 .      S
C249  C250  1.488 .      S
C249  H218  1.109 .      S
C249  H219  1.109 .      S
C249  H220  1.108 .      S
C251  H221  1.081 .      S
C252  H222  1.053 .      S
C254  S32   1.781 .      S
C256  H223  1.070 .      S
S32   O96   1.698 .      S
O96   H224  0.984 .      S
C257  C258  1.490 .      S
C257  H225  1.101 .      S
C257  H226  1.108 .      S
C257  H227  1.104 .      S
C259  H228  1.061 .      S
C260  H229  1.069 .      S
C262  S33   1.778 .      S
N66   Zn23  2.118 1_545  S
C264  H230  1.071 .      S
S33   O99   1.708 .      S
O99   H231  0.989 .      S
C265  C266  1.488 .      S
C265  H232  1.109 .      S
C265  H233  1.107 .      S
C265  H234  1.109 .      S
C267  H235  1.081 .      S
C268  H236  1.058 .      S
C270  S34   1.770 .      S
C272  H237  1.063 .      S
S34   O102  1.704 .      S
O102  H238  0.986 .      S
C273  C274  1.489 .      S
C273  H239  1.109 .      S
C273  H240  1.109 .      S
C273  H241  1.109 .      S
C275  H242  1.081 .      S
C276  H243  1.071 1_545  S
N69   Zn25  2.108 1_545  S
C278  S35   1.737 .      S
C280  H244  1.057 .      S
S35   O105  1.701 .      S
O105  H245  0.990 .      S
H243  C276  1.071 1_565  S
C281  C282  1.488 .      S
C281  H246  1.109 .      S
C281  H247  1.108 .      S
C281  H248  1.108 .      S
C283  H249  1.081 .      S
C284  H250  1.079 .      S
C286  S36   1.780 .      S
C288  H251  1.060 .      S
S36   O108  1.699 .      S
O108  H252  0.989 .      S
C289  C290  1.458 1_565  S
C289  H253  1.088 1_565  S
C289  H254  1.101 .      S
C289  H255  1.100 .      S
C290  C289  1.458 1_545  S
C291  H256  1.037 .      S
C292  H257  1.076 .      S
C294  S37   1.771 .      S
N74   Zn45  2.098 1_545  S
C296  H258  1.072 1_545  S
S37   O111  1.696 .      S
O111  H259  0.989 .      S
H253  C289  1.088 1_545  S
H258  C296  1.072 1_565  S
C297  C298  1.487 .      S
C297  H260  1.109 .      S
C297  H261  1.108 .      S
C297  H262  1.109 .      S
C299  H263  1.079 .      S
C300  H264  1.067 .      S
C302  S38   1.789 .      S
C304  H265  1.077 .      S
S38   O114  1.716 .      S
O114  H266  0.989 .      S
C305  C306  1.441 .      S
C305  H267  1.086 .      S
C305  H268  1.098 .      S
C305  H269  1.106 .      S
C307  H270  1.077 .      S
C308  H271  1.072 1_665  S
N77   Zn27  2.130 1_655  S
C310  S39   1.820 .      S
C312  H272  1.066 .      S
S39   O117  1.711 .      S
O117  H273  0.990 .      S
H271  C308  1.072 1_445  S
C313  C314  1.488 .      S
C313  H274  1.107 .      S
C313  H275  1.109 1_565  S
C313  H276  1.109 .      S
C315  H277  1.081 .      S
C316  H278  1.066 .      S
C318  S40   1.792 .      S
C320  H279  1.072 .      S
S40   O120  1.709 .      S
O120  H280  0.989 .      S
H275  C313  1.109 1_545  S
C321  C322  1.492 .      S
C321  H281  1.104 .      S
C321  H282  1.097 .      S
C321  H283  1.108 .      S
C323  H284  1.065 .      S
C324  H285  1.075 .      S
N81   Zn27  2.147 1_545  S
C326  S41   1.775 .      S
C328  H286  1.067 .      S
S41   O123  1.703 .      S
O123  H287  0.989 .      S
C329  C330  1.488 .      S
C329  H288  1.109 .      S
C329  H289  1.108 1_554  S
C329  H290  1.109 1_554  S
C331  H291  1.080 .      S
C332  H292  1.063 .      S
C334  S42   1.803 .      S
C336  H293  1.065 .      S
S42   O126  1.707 .      S
O126  H294  0.990 .      S
H289  C329  1.108 1_556  S
H290  C329  1.109 1_556  S
C337  C338  1.481 .      S
C337  H295  1.098 .      S
C337  H296  1.107 .      S
C337  H297  1.105 .      S
C339  H298  1.074 .      S
C340  H299  1.079 .      S
C342  S43   1.813 .      S
C344  H300  1.047 .      S
S43   O129  1.699 .      S
O129  H301  0.987 .      S
C345  C346  1.488 .      S
C345  H302  1.109 .      S
C345  H303  1.109 .      S
C345  H304  1.109 .      S
C347  H305  1.081 .      S
C348  H306  1.080 .      S
C350  S44   1.782 .      S
C352  H307  1.060 .      S
S44   O132  1.701 .      S
O132  H308  0.990 .      S
C353  C354  1.488 .      S
C353  H309  1.109 .      S
C353  H310  1.107 .      S
C353  H311  1.107 .      S
C355  H312  1.080 .      S
C356  H313  1.074 .      S
C358  S45   1.808 .      S
C360  H314  1.062 .      S
S45   O135  1.715 .      S
O135  H315  0.990 .      S
C361  C362  1.472 .      S
C361  H316  1.108 .      S
C361  H317  1.095 .      S
C361  H318  1.108 .      S
C363  H319  1.062 .      S
C364  H320  1.079 .      S
C366  S46   1.771 .      S
C368  H321  1.074 .      S
S46   O138  1.708 .      S
O138  H322  0.989 .      S
C369  C370  1.487 .      S
C369  H323  1.109 1_545  S
C369  H324  1.108 .      S
C369  H325  1.109 .      S
C371  H326  1.081 .      S
C372  H327  1.081 .      S
C374  S47   1.773 .      S
C376  H328  1.062 .      S
S47   O141  1.702 .      S
O141  H329  0.988 .      S
H323  C369  1.109 1_565  S
C377  C378  1.487 .      S
C377  H330  1.109 1_554  S
C377  H331  1.107 .      S
C377  H332  1.109 .      S
C379  H333  1.080 .      S
C380  H334  1.076 .      S
C382  S48   1.764 .      S
C384  H335  1.069 .      S
S48   O144  1.705 .      S
O144  H336  0.990 .      S
H330  C377  1.109 1_556  S
C385  C386  1.486 1_556  S
C385  H337  1.109 .      S
C385  H338  1.107 .      S
C385  H339  1.109 1_556  S
C386  C385  1.486 1_554  S
C387  H340  1.080 .      S
C388  H341  1.070 .      S
C390  S49   1.776 .      S
C392  H342  1.065 .      S
S49   O147  1.713 .      S
O147  H343  0.990 .      S
H339  C385  1.109 1_554  S
C393  C394  1.481 .      S
C393  H344  1.107 .      S
C393  H345  1.090 .      S
C393  H346  1.109 .      S
C395  H347  1.074 .      S
C396  H348  1.054 1_545  S
N99   Zn1   2.186 1_545  S
C398  S50   1.803 .      S
C400  H349  1.067 .      S
S50   O150  1.717 .      S
O150  H350  0.990 .      S
H348  C396  1.054 1_565  S
C401  C402  1.464 .      S
C401  H351  1.103 .      S
C401  H352  1.106 .      S
C401  H353  1.103 .      S
C403  H354  1.055 .      S
C404  H355  1.076 .      S
C406  S51   1.790 .      S
C408  H356  1.068 .      S
S51   O153  1.706 .      S
O153  H357  0.990 .      S
C409  C410  1.487 .      S
C409  H358  1.108 .      S
C409  H359  1.102 .      S
C409  H360  1.109 .      S
C411  H361  1.081 .      S
C412  H362  1.069 .      S
C414  S52   1.790 .      S
C416  H363  1.070 .      S
S52   O156  1.707 .      S
O156  H364  0.990 .      S
C417  C418  1.487 .      S
C417  H365  1.108 .      S
C417  H366  1.109 .      S
C417  H367  1.108 .      S
C419  H368  1.081 .      S
C420  H369  1.067 .      S
C422  S53   1.814 .      S
N106  Zn55  2.158 1_554  S
C424  H370  1.076 .      S
S53   O159  1.712 .      S
O159  H371  0.990 .      S
C425  C426  1.471 .      S
C425  H372  1.108 .      S
C425  H373  1.107 .      S
C425  H374  1.102 .      S
C427  H375  1.081 .      S
C428  H376  1.076 .      S
N107  Zn57  2.062 1_554  S
C430  S54   1.772 1_554  S
C432  H377  1.062 .      S
S54   C430  1.772 1_556  S
S54   O162  1.708 .      S
O162  H378  0.987 .      S
C433  C434  1.460 .      S
C433  H379  1.082 .      S
C433  H380  1.103 .      S
C433  H381  1.104 .      S
C435  H382  1.072 .      S
C436  H383  1.075 .      S
C438  S55   1.784 .      S
C440  H384  1.069 .      S
S55   O165  1.695 .      S
O165  H385  0.981 .      S
C441  C442  1.488 .      S
C441  H386  1.109 .      S
C441  H387  1.108 .      S
C441  H388  1.109 .      S
C443  H389  1.081 .      S
C444  H390  1.073 1_554  S
N111  Zn56  2.221 1_554  S
C446  S56   1.726 .      S
C448  H391  1.073 .      S
S56   O168  1.684 1_554  S
O168  S56   1.684 1_556  S
O168  H392  0.978 .      S
H390  C444  1.073 1_556  S
C449  C450  1.432 .      S
C449  H393  1.109 .      S
C449  H394  1.104 .      S
C449  H395  1.096 .      S
C451  H396  1.072 .      S
C452  H397  1.054 .      S
N113  Zn58  2.138 1_554  S
C454  S57   1.753 1_554  S
C456  H398  1.034 .      S
S57   C454  1.753 1_556  S
S57   O171  1.717 .      S
O171  H399  0.990 .      S
C457  C458  1.453 .      S
C457  H400  1.105 .      S
C457  H401  1.107 .      S
C457  H402  1.101 .      S
C459  H403  1.058 .      S
C460  H404  1.078 .      S
C462  S58   1.789 .      S
C464  H405  1.076 .      S
S58   O174  1.707 .      S
O174  H406  0.988 .      S
C465  C466  1.472 .      S
C465  H407  1.088 .      S
C465  H408  1.093 .      S
C465  H409  1.103 .      S
C467  H410  1.077 .      S
C468  H411  1.064 .      S
C470  S59   1.697 1_554  S
C472  H412  1.075 .      S
S59   C470  1.697 1_556  S
S59   O177  1.686 .      S
O177  H413  0.989 1_556  S
H413  O177  0.989 1_554  S
C473  C474  1.468 1_455  S
C473  H414  1.086 .      S
C473  H415  1.100 .      S
C473  H416  1.099 .      S
C474  C473  1.468 1_655  S
C475  H417  1.079 .      S
C476  H418  1.059 .      S
C478  S60   1.757 1_556  S
N120  Zn24  2.139 1_655  S
C480  H419  1.065 .      S
S60   C478  1.757 1_554  S
S60   O180  1.693 1_554  S
O180  S60   1.693 1_556  S
O180  H420  0.977 1_656  S
H420  O180  0.977 1_454  S
C481  C482  1.489 1_455  S
C481  H421  1.106 .      S
C481  H422  1.091 .      S
C481  H423  1.101 .      S
C482  C481  1.489 1_655  S
C483  H424  1.077 .      S
C484  H425  1.039 .      S
C486  S61   1.751 .      S
N122  Zn37  2.017 1_545  S
C488  H426  1.066 1_545  S
S61   O183  1.686 1_554  S
O183  S61   1.686 1_556  S
O183  H427  0.989 .      S
H426  C488  1.066 1_565  S
C489  C490  1.467 .      S
C489  H428  1.091 .      S
C489  H429  1.089 .      S
C489  H430  1.086 .      S
C491  H431  1.076 .      S
C492  H432  1.063 .      S
C494  S62   1.811 .      S
C496  H433  1.062 .      S
S62   O186  1.716 .      S
O186  H434  0.990 .      S
C497  C498  1.489 1_455  S
C497  H435  1.106 .      S
C497  H436  1.101 .      S
C497  H437  1.103 .      S
C498  C497  1.489 1_655  S
C499  H438  1.072 .      S
C500  H439  1.077 .      S
C502  S63   1.708 .      S
C504  H440  1.063 .      S
S63   O189  1.688 .      S
O189  H441  0.990 .      S
C505  C506  1.477 .      S
C505  H442  1.109 .      S
C505  H443  1.098 .      S
C505  H444  1.109 .      S
C507  H445  1.080 .      S
C508  H446  1.077 .      S
C510  S64   1.794 .      S
C512  H447  1.076 .      S
S64   O192  1.714 .      S
O192  H448  0.990 .      S
C513  C514  1.485 .      S
C513  H449  1.109 .      S
C513  H450  1.109 .      S
C513  H451  1.106 .      S
C515  H452  1.081 .      S
C516  H453  1.077 .      S
N129  Zn62  2.136 1_655  S
C518  S65   1.780 .      S
C520  H454  1.076 .      S
S65   O195  1.696 .      S
O195  H455  0.981 .      S
C521  C522  1.441 .      S
C521  H456  1.101 .      S
C521  H457  1.099 .      S
C521  H458  1.088 .      S
C523  H459  1.074 .      S
C524  H460  1.053 .      S
C526  S66   1.743 .      S
C528  H461  1.062 .      S
S66   O198  1.670 .      S
O198  H462  0.987 .      S
C529  C530  1.451 .      S
C529  H463  1.104 .      S
C529  H464  1.107 .      S
C529  H465  1.107 .      S
C531  H466  1.081 .      S
C532  H467  1.076 .      S
C534  S67   1.779 .      S
C536  H468  1.063 .      S
S67   O201  1.715 .      S
O201  H469  0.988 .      S
C537  C538  1.477 .      S
C537  H470  1.108 .      S
C537  H471  1.099 .      S
C537  H472  1.108 .      S
C539  H473  1.073 .      S
C540  H474  1.063 .      S
C542  S68   1.779 .      S
C544  H475  1.059 .      S
S68   O204  1.705 .      S
O204  H476  0.990 .      S
C545  C546  1.481 1_545  S
C545  H477  1.102 1_545  S
C545  H478  1.094 .      S
C545  H479  1.109 .      S
C546  C545  1.481 1_565  S
C547  H480  1.079 .      S
C548  H481  1.027 .      S
C550  S69   1.740 .      S
N138  Zn23  2.107 1_655  S
C552  H482  1.068 .      S
S69   O207  1.676 1_655  S
O207  S69   1.676 1_455  S
O207  H483  0.986 .      S
H477  C545  1.102 1_565  S
C553  C554  1.470 .      S
C553  H484  1.108 .      S
C553  H485  1.088 .      S
C553  H486  1.085 1_545  S
C555  H487  1.078 .      S
C556  H488  1.068 .      S
N139  Zn25  2.080 1_554  S
C558  S70   1.774 1_554  S
C560  H489  1.079 .      S
S70   C558  1.774 1_556  S
S70   O210  1.710 .      S
O210  H490  0.986 .      S
H486  C553  1.085 1_565  S
C561  C562  1.473 .      S
C561  H491  1.107 1_655  S
C561  H492  1.097 .      S
C561  H493  1.107 .      S
C563  H494  1.079 .      S
C564  H495  1.068 .      S
C566  S71   1.751 .      S
C568  H496  1.078 .      S
S71   O213  1.714 .      S
O213  H497  0.986 .      S
H491  C561  1.107 1_455  S
C569  C570  1.479 .      S
C569  H498  1.109 .      S
C569  H499  1.107 .      S
C569  H500  1.107 .      S
C571  H501  1.079 .      S
C572  H502  1.070 .      S
C574  S72   1.778 .      S
C576  H503  1.078 .      S
S72   O216  1.712 1_554  S
O216  S72   1.712 1_556  S
O216  H504  0.990 .      S
C577  C578  1.480 .      S
C577  H505  1.093 .      S
C577  H506  1.097 .      S
C577  H507  1.103 .      S
C579  H508  1.081 .      S
C580  H509  1.064 .      S
N145  Zn38  2.110 1_556  S
C582  S73   1.750 .      S
N146  Zn50  2.195 1_455  S
C584  H510  1.035 .      S
S73   O219  1.705 1_455  S
O219  S73   1.705 1_655  S
O219  H511  0.979 .      S
C585  C586  1.488 .      S
C585  H512  1.109 .      S
C585  H513  1.109 .      S
C585  H514  1.108 .      S
C587  H515  1.081 .      S
C588  H516  1.058 .      S
C590  S74   1.776 .      S
C592  H517  1.063 .      S
S74   O222  1.711 .      S
O222  H518  0.990 .      S
C593  C594  1.481 .      S
C593  H519  1.106 .      S
C593  H520  1.103 .      S
C593  H521  1.105 .      S
C595  H522  1.074 .      S
C596  H523  1.070 .      S
N149  Zn38  2.224 1_655  S
C598  S75   1.737 .      S
C600  H524  1.073 .      S
S75   O225  1.705 .      S
O225  H525  0.989 .      S
C601  C602  1.449 .      S
C601  H526  1.099 1_556  S
C601  H527  1.095 .      S
C601  H528  1.100 .      S
C603  H529  1.068 .      S
C604  H530  1.065 .      S
N151  Zn39  2.133 1_556  S
C606  S76   1.783 .      S
C608  H531  1.047 .      S
S76   O228  1.687 .      S
O228  H532  0.991 .      S
H526  C601  1.099 1_554  S
C609  C610  1.465 .      S
C609  H533  1.102 .      S
C609  H534  1.106 .      S
C609  H535  1.096 .      S
C611  H536  1.080 .      S
C612  H537  1.064 .      S
C614  S77   1.789 .      S
C616  H538  1.080 .      S
S77   O231  1.709 .      S
O231  H539  0.990 .      S
C617  C618  1.488 .      S
C617  H540  1.109 .      S
C617  H541  1.108 .      S
C617  H542  1.108 .      S
C619  H543  1.079 .      S
C620  H544  1.074 .      S
C622  S78   1.771 1_554  S
C624  H545  1.070 .      S
S78   C622  1.771 1_556  S
S78   O234  1.713 .      S
O234  H546  0.990 .      S
C625  C626  1.490 .      S
C625  H547  1.108 .      S
C625  H548  1.108 .      S
C625  H549  1.108 .      S
C627  H550  1.080 .      S
C628  H551  1.066 .      S
C630  S79   1.778 .      S
C632  H552  1.054 .      S
S79   O237  1.705 .      S
O237  H553  0.989 .      S
C633  C634  1.490 .      S
C633  H554  1.109 .      S
C633  H555  1.109 .      S
C633  H556  1.109 .      S
C635  H557  1.081 .      S
C636  H558  1.059 .      S
C638  S80   1.811 .      S
C640  H559  1.071 .      S
S80   O240  1.704 .      S
O240  H560  0.990 .      S
C641  C642  1.488 .      S
C641  H561  1.109 .      S
C641  H562  1.109 .      S
C641  H563  1.109 .      S
C643  H564  1.080 .      S
C644  H565  1.067 .      S
C646  S81   1.734 .      S
C648  H566  1.053 .      S
S81   O243  1.709 .      S
O243  H567  0.986 .      S
C649  C650  1.487 .      S
C649  H568  1.109 .      S
C649  H569  1.106 .      S
C649  H570  1.109 .      S
C651  H571  1.081 .      S
C652  H572  1.057 .      S
C654  S82   1.800 .      S
C656  H573  1.059 .      S
S82   O246  1.714 .      S
O246  H574  0.990 .      S
C657  C658  1.488 .      S
C657  H575  1.109 .      S
C657  H576  1.107 .      S
C657  H577  1.109 .      S
C659  H578  1.081 .      S
C660  H579  1.068 .      S
C662  S83   1.780 .      S
C664  H580  1.074 .      S
S83   O249  1.702 .      S
O249  H581  0.990 .      S
C665  C666  1.487 .      S
C665  H582  1.109 .      S
C665  H583  1.107 .      S
C665  H584  1.109 .      S
C667  H585  1.081 .      S
C668  H586  1.070 .      S
C670  S84   1.799 .      S
C672  H587  1.067 .      S
S84   O252  1.708 .      S
O252  H588  0.990 .      S
C673  C674  1.488 .      S
C673  H589  1.109 1_554  S
C673  H590  1.109 .      S
C673  H591  1.109 .      S
C675  H592  1.081 1_554  S
C676  H593  1.070 .      S
C678  S85   1.788 .      S
C680  H594  1.068 .      S
S85   O255  1.700 .      S
O255  H595  0.985 .      S
H589  C673  1.109 1_556  S
H592  C675  1.081 1_556  S
C681  C682  1.473 .      S
C681  H596  1.108 .      S
C681  H597  1.109 .      S
C681  H598  1.108 .      S
C683  H599  1.073 .      S
C684  H600  1.059 .      S
C686  S86   1.788 .      S
C688  H601  1.060 .      S
S86   O258  1.712 .      S
O258  H602  0.989 .      S
C689  C690  1.484 .      S
C689  H603  1.103 .      S
C689  H604  1.107 .      S
C689  H605  1.109 .      S
C691  H606  1.079 .      S
C692  H607  1.073 .      S
C694  S87   1.784 .      S
C696  H608  1.073 .      S
S87   O261  1.712 1_554  S
O261  S87   1.712 1_556  S
O261  H609  0.990 .      S
C697  C698  1.481 .      S
C697  H610  1.107 .      S
C697  H611  1.099 .      S
C697  H612  1.095 .      S
C699  H613  1.080 .      S
C700  H614  1.069 .      S
C702  S88   1.780 .      S
C704  H615  1.058 .      S
S88   O264  1.701 .      S
O264  H616  0.989 .      S
C705  C706  1.485 .      S
C705  H617  1.109 .      S
C705  H618  1.108 .      S
C705  H619  1.109 .      S
C707  H620  1.081 .      S
C708  H621  1.068 .      S
C710  S89   1.798 .      S
C712  H622  1.072 .      S
S89   O267  1.710 .      S
O267  H623  0.990 .      S
C713  C714  1.487 .      S
C713  H624  1.109 .      S
C713  H625  1.109 .      S
C713  H626  1.108 .      S
C715  H627  1.081 .      S
C716  H628  1.079 .      S
C718  S90   1.805 1_565  S
C720  H629  1.078 .      S
S90   C718  1.805 1_545  S
S90   O270  1.712 .      S
O270  H630  0.990 .      S
C721  C722  1.488 .      S
C721  H631  1.109 .      S
C721  H632  1.109 .      S
C721  H633  1.109 .      S
C723  H634  1.081 .      S
C724  H635  1.056 .      S
C726  S91   1.776 .      S
C728  H636  1.074 .      S
S91   O273  1.693 1_565  S
O273  S91   1.693 1_545  S
O273  H637  0.989 1_545  S
H637  O273  0.989 1_565  S
C729  C730  1.489 .      S
C729  H638  1.107 .      S
C729  H639  1.109 .      S
C729  H640  1.108 .      S
C731  H641  1.080 .      S
C732  H642  1.060 .      S
C734  S92   1.751 .      S
N184  Zn7   2.042 1_545  S
C736  H643  1.078 1_545  S
S92   O276  1.680 .      S
O276  H644  0.986 .      S
H643  C736  1.078 1_565  S
C737  C738  1.486 .      S
C737  H645  1.109 .      S
C737  H646  1.107 .      S
C737  H647  1.109 .      S
C739  H648  1.081 .      S
C740  H649  1.073 .      S
C742  S93   1.791 .      S
C744  H650  1.072 .      S
S93   O279  1.706 .      S
O279  H651  0.990 .      S
C745  C746  1.466 .      S
C745  H652  1.100 .      S
C745  H653  1.090 .      S
C745  H654  1.099 .      S
C747  H655  1.051 .      S
C748  H656  1.070 .      S
C750  S94   1.730 .      S
C752  H657  1.064 .      S
S94   O282  1.706 .      S
O282  H658  0.989 .      S
C753  C754  1.488 .      S
C753  H659  1.108 .      S
C753  H660  1.107 .      S
C753  H661  1.109 .      S
C755  H662  1.081 .      S
C756  H663  1.076 .      S
C758  S95   1.746 .      S
C760  H664  1.068 .      S
S95   O285  1.712 .      S
O285  H665  0.990 .      S
C761  C762  1.487 .      S
C761  H666  1.109 .      S
C761  H667  1.109 .      S
C761  H668  1.108 .      S
C763  H669  1.081 .      S
C764  H670  1.080 .      S
C766  S96   1.795 .      S
C768  H671  1.078 .      S
S96   O288  1.709 .      S
O288  H672  0.986 .      S
C769  C770  1.487 .      S
C769  H673  1.109 .      S
C769  H674  1.109 .      S
C769  H675  1.109 .      S
C771  H676  1.081 .      S
C772  H677  1.068 .      S
C774  S97   1.727 .      S
C776  H678  1.077 .      S
S97   O291  1.710 .      S
O291  H679  0.987 .      S
C777  C778  1.488 .      S
C777  H680  1.108 .      S
C777  H681  1.103 .      S
C777  H682  1.107 .      S
C779  H683  1.076 .      S
C780  H684  1.065 .      S
C782  S98   1.791 .      S
C784  H685  1.076 .      S
S98   O294  1.696 .      S
O294  H686  0.990 .      S
C785  C786  1.486 .      S
C785  H687  1.109 .      S
C785  H688  1.102 .      S
C785  H689  1.108 .      S
C787  H690  1.078 .      S
C788  H691  1.054 .      S
C790  S99   1.797 .      S
C792  H692  1.052 .      S
S99   O297  1.711 .      S
O297  H693  0.986 .      S
C793  C794  1.485 .      S
C793  H694  1.098 .      S
C793  H695  1.104 .      S
C793  H696  1.081 .      S
C795  H697  1.062 .      S
C796  H698  1.062 .      S
C798  S100  1.769 .      S
C800  H699  1.058 .      S
S100  O300  1.700 1_545  S
O300  S100  1.700 1_565  S
O300  H700  0.990 .      S
C801  C802  1.491 .      S
C801  H701  1.109 .      S
C801  H702  1.108 .      S
C801  H703  1.108 .      S
C803  H704  1.080 .      S
C804  H705  1.057 .      S
C806  S101  1.736 .      S
C808  H706  1.070 .      S
S101  O303  1.707 .      S
O303  H707  0.991 .      S
C809  C810  1.481 .      S
C809  H708  1.109 .      S
C809  H709  1.108 .      S
C809  H710  1.108 .      S
C811  H711  1.080 .      S
C812  H712  1.080 .      S
C814  S102  1.774 .      S
C816  H713  1.068 .      S
S102  O306  1.712 .      S
O306  H714  0.989 .      S
C817  C818  1.488 .      S
C817  H715  1.109 .      S
C817  H716  1.109 .      S
C817  H717  1.109 .      S
C819  H718  1.081 .      S
C820  H719  1.078 .      S
C822  S103  1.781 .      S
C824  H720  1.066 .      S
S103  O309  1.696 .      S
O309  H721  0.974 .      S
C825  C826  1.488 .      S
C825  H722  1.109 .      S
C825  H723  1.108 .      S
C825  H724  1.109 .      S
C827  H725  1.081 .      S
C828  H726  1.066 .      S
C830  S104  1.756 .      S
C832  H727  1.071 .      S
S104  O312  1.716 1_565  S
O312  S104  1.716 1_545  S
O312  H728  0.990 1_545  S
H728  O312  0.990 1_565  S
C833  C834  1.485 .      S
C833  H729  1.104 .      S
C833  H730  1.109 .      S
C833  H731  1.109 .      S
C835  H732  1.081 .      S
C836  H733  1.080 .      S
C838  S105  1.738 .      S
C840  H734  1.067 .      S
S105  O315  1.708 .      S
O315  H735  0.990 .      S
C841  C842  1.488 .      S
C841  H736  1.109 .      S
C841  H737  1.109 .      S
C841  H738  1.109 .      S
C843  H739  1.081 .      S
C844  H740  1.081 .      S
N211  Zn21  2.107 1_455  S
C846  S106  1.726 .      S
N212  Zn50  2.135 1_455  S
C848  H741  1.067 .      S
S106  O318  1.682 .      S
O318  H742  0.979 .      S
C849  C850  1.453 .      S
C849  H743  1.105 .      S
C849  H744  1.105 .      S
C849  H745  1.103 .      S
C851  H746  1.079 .      S
C852  H747  1.058 .      S
C854  S107  1.805 .      S
C856  H748  1.062 .      S
S107  O321  1.692 .      S
O321  H749  0.984 .      S
C857  C858  1.488 .      S
C857  H750  1.109 .      S
C857  H751  1.108 .      S
C857  H752  1.109 .      S
C859  H753  1.081 .      S
C860  H754  1.074 .      S
C862  S108  1.784 .      S
C864  H755  1.071 .      S
S108  O324  1.698 .      S
O324  H756  0.988 1_565  S
H756  O324  0.988 1_545  S
C865  C866  1.490 .      S
C865  H757  1.108 .      S
C865  H758  1.105 .      S
C865  H759  1.105 .      S
C867  H760  1.080 .      S
C868  H761  1.081 1_545  S
N217  Zn51  2.104 1_545  S
C870  S109  1.746 .      S
C872  H762  1.072 .      S
S109  O327  1.711 .      S
O327  H763  0.983 .      S
H761  C868  1.081 1_565  S
C873  C874  1.488 .      S
C873  H764  1.109 .      S
C873  H765  1.108 .      S
C873  H766  1.109 .      S
C875  H767  1.081 .      S
C876  H768  1.075 .      S
C878  S110  1.803 1_565  S
C880  H769  1.080 .      S
S110  C878  1.803 1_545  S
S110  O330  1.700 .      S
O330  H770  0.988 .      S
C881  C882  1.491 .      S
C881  H771  1.098 .      S
C881  H772  1.108 .      S
C881  H773  1.104 .      S
C883  H774  1.078 .      S
C884  H775  1.063 .      S
C886  S111  1.799 .      S
C888  H776  1.073 .      S
S111  O333  1.696 .      S
O333  H777  0.988 .      S
C889  C890  1.486 .      S
C889  H778  1.109 .      S
C889  H779  1.109 .      S
C889  H780  1.107 .      S
C891  H781  1.081 .      S
C892  H782  1.079 .      S
C894  S112  1.777 .      S
C896  H783  1.075 .      S
S112  O336  1.708 .      S
O336  H784  0.989 .      S
C897  C898  1.483 .      S
C897  H785  1.105 .      S
C897  H786  1.105 .      S
C897  H787  1.107 .      S
C899  H788  1.080 .      S
C900  H789  1.062 .      S
C902  S113  1.790 .      S
C904  H790  1.068 .      S
S113  O339  1.709 .      S
O339  H791  0.985 .      S
C905  C906  1.488 .      S
C905  H792  1.109 .      S
C905  H793  1.107 .      S
C905  H794  1.109 .      S
C907  H795  1.081 .      S
C908  H796  1.081 .      S
C910  S114  1.721 .      S
C912  H797  1.075 .      S
S114  O342  1.696 .      S
O342  H798  0.984 .      S
C913  C914  1.487 .      S
C913  H799  1.107 .      S
C913  H800  1.109 .      S
C913  H801  1.109 .      S
C915  H802  1.081 .      S
C916  H803  1.077 .      S
C918  S115  1.720 .      S
C920  H804  1.078 .      S
S115  O345  1.701 .      S
O345  H805  0.987 .      S
C921  C922  1.487 .      S
C921  H806  1.109 1_565  S
C921  H807  1.106 .      S
C921  H808  1.108 1_565  S
C923  H809  1.074 1_565  S
C924  H810  1.070 .      S
C926  S116  1.802 .      S
C928  H811  1.052 .      S
S116  O348  1.715 .      S
O348  H812  0.990 .      S
H806  C921  1.109 1_545  S
H808  C921  1.108 1_545  S
H809  C923  1.074 1_545  S
C929  C930  1.485 .      S
C929  H813  1.109 .      S
C929  H814  1.108 .      S
C929  H815  1.109 .      S
C931  H816  1.081 .      S
C932  H817  1.081 .      S
C934  S117  1.732 .      S
C936  H818  1.073 .      S
S117  O351  1.682 .      S
O351  H819  0.981 .      S
C937  C938  1.488 .      S
C937  H820  1.106 .      S
C937  H821  1.109 .      S
C937  H822  1.108 .      S
C939  H823  1.080 .      S
C940  H824  1.048 .      S
C942  S118  1.726 .      S
C944  H825  1.061 .      S
S118  O354  1.681 .      S
O354  H826  0.990 .      S
C945  C946  1.489 .      S
C945  H827  1.109 .      S
C945  H828  1.109 .      S
C945  H829  1.109 .      S
C947  H830  1.080 .      S
C948  H831  1.041 .      S
C950  S119  1.806 .      S
C952  H832  1.061 .      S
S119  O357  1.697 .      S
O357  H833  0.990 .      S
C953  C954  1.488 .      S
C953  H834  1.109 .      S
C953  H835  1.109 .      S
C953  H836  1.109 .      S
C955  H837  1.081 .      S
C956  H838  1.079 .      S
C958  S120  1.803 .      S
C960  H839  1.081 .      S
S120  O360  1.708 .      S
O360  H840  0.990 .      S
C961  C962  1.488 .      S
C961  H841  1.108 .      S
C961  H842  1.108 .      S
C961  H843  1.109 .      S
C963  H844  1.081 .      S
C964  H845  1.079 .      S
N241  Zn55  2.094 1_554  S
C966  S121  1.810 .      S
C968  H846  1.078 .      S
S121  O363  1.715 1_554  S
O363  S121  1.715 1_556  S
O363  H847  0.989 .      S
C969  C970  1.488 .      S
C969  H848  1.109 .      S
C969  H849  1.106 .      S
C969  H850  1.109 .      S
C971  H851  1.079 .      S
C972  H852  1.066 .      S
C974  S122  1.760 .      S
C976  H853  1.055 .      S
S122  O366  1.709 .      S
O366  H854  0.989 .      S
C977  C978  1.486 .      S
C977  H855  1.103 .      S
C977  H856  1.103 .      S
C977  H857  1.091 .      S
C979  H858  1.065 .      S
C980  H859  1.074 .      S
C982  S123  1.783 .      S
C984  H860  1.080 .      S
S123  O369  1.706 1_556  S
O369  S123  1.706 1_554  S
O369  H861  0.988 .      S
C985  C986  1.489 .      S
C985  H862  1.109 .      S
C985  H863  1.109 .      S
C985  H864  1.109 .      S
C987  H865  1.080 .      S
C988  H866  1.069 1_556  S
C990  S124  1.774 .      S
N248  Zn57  2.072 1_554  S
C992  H867  1.061 .      S
S124  O372  1.710 .      S
O372  H868  0.988 .      S
H866  C988  1.069 1_554  S
C993  C994  1.479 .      S
C993  H869  1.108 .      S
C993  H870  1.102 .      S
C993  H871  1.106 .      S
C995  H872  1.061 .      S
C996  H873  1.060 .      S
C998  S125  1.783 1_556  S
C1000 H874  1.059 .      S
S125  C998  1.783 1_554  S
S125  O375  1.689 .      S
O375  H875  0.983 .      S
C1001 C1002 1.489 .      S
C1001 H876  1.108 .      S
C1001 H877  1.109 .      S
C1001 H878  1.109 .      S
C1003 H879  1.081 .      S
C1004 H880  1.069 .      S
C1006 S126  1.796 .      S
C1008 H881  1.072 .      S
S126  O378  1.717 .      S
O378  H882  0.985 .      S
C1009 C1010 1.484 .      S
C1009 H883  1.107 .      S
C1009 H884  1.108 .      S
C1009 H885  1.108 .      S
C1011 H886  1.081 .      S
C1012 H887  1.066 .      S
C1014 S127  1.785 .      S
C1016 H888  1.078 .      S
S127  O381  1.709 .      S
O381  H889  0.990 .      S
C1017 C1018 1.492 .      S
C1017 H890  1.101 .      S
C1017 H891  1.107 .      S
C1017 H892  1.097 .      S
C1019 H893  1.055 .      S
C1020 H894  1.068 .      S
C1022 S128  1.750 .      S
C1024 H895  1.064 .      S
S128  O384  1.708 .      S
O384  H896  0.990 .      S
C1025 C1026 1.488 .      S
C1025 H897  1.109 .      S
C1025 H898  1.109 .      S
C1025 H899  1.109 .      S
C1027 H900  1.081 .      S
C1028 H901  1.059 .      S
C1030 S129  1.789 .      S
C1032 H902  1.068 .      S
S129  O387  1.712 .      S
O387  H903  0.990 .      S
C1033 C1034 1.490 .      S
C1033 H904  1.108 .      S
C1033 H905  1.109 .      S
C1033 H906  1.109 .      S
C1035 H907  1.077 .      S
C1036 H908  1.052 .      S
C1038 S130  1.793 .      S
C1040 H909  1.073 .      S
S130  O390  1.715 .      S
O390  H910  0.990 1_554  S
H910  O390  0.990 1_556  S
C1041 C1042 1.488 .      S
C1041 H911  1.109 .      S
C1041 H912  1.109 .      S
C1041 H913  1.109 .      S
C1043 H914  1.081 .      S
C1044 H915  1.068 .      S
C1046 S131  1.784 .      S
C1048 H916  1.052 .      S
S131  O393  1.715 .      S
O393  H917  0.989 .      S
C1049 C1050 1.488 .      S
C1049 H918  1.109 .      S
C1049 H919  1.091 .      S
C1049 H920  1.092 .      S
C1051 H921  1.067 .      S
C1052 H922  1.036 .      S
C1054 S132  1.743 .      S
C1056 H923  1.056 .      S
S132  O396  1.708 .      S
O396  H924  0.991 .      S
C2    C3    1.384 .      A
C2    C8    1.381 .      A
C3    C4    1.382 .      A
C4    C5    1.375 .      A
C5    N1    1.353 .      A
C5    C7    1.353 .      A
N1    C6    1.368 .      A
C6    N2    1.388 .      A
N2    C7    1.339 .      A
C7    C8    1.370 .      A
C10   C11   1.376 .      A
C10   C16   1.381 .      A
C11   C12   1.379 .      A
C12   C13   1.359 .      A
C13   N3    1.345 .      A
C13   C15   1.361 .      A
N3    C14   1.386 .      A
C14   N4    1.401 .      A
N4    C15   1.345 .      A
C15   C16   1.373 .      A
C18   C19   1.376 1_565  A
C18   C24   1.408 .      A
C19   C18   1.376 1_545  A
C19   C20   1.365 .      A
C20   C21   1.357 .      A
C21   N5    1.324 .      A
C21   C23   1.356 1_545  A
N5    C22   1.380 1_545  A
C22   N5    1.380 1_565  A
C22   N6    1.396 .      A
N6    C23   1.362 .      A
C23   C21   1.356 1_565  A
C23   C24   1.377 .      A
C26   C27   1.382 .      A
C26   C32   1.387 .      A
C27   C28   1.377 .      A
C28   C29   1.364 .      A
C29   N7    1.345 .      A
C29   C31   1.359 .      A
N7    C30   1.387 .      A
C30   N8    1.399 .      A
N8    C31   1.348 .      A
C31   C32   1.375 .      A
C34   C35   1.368 .      A
C34   C40   1.378 .      A
C35   C36   1.352 .      A
C36   C37   1.341 .      A
C37   N9    1.322 .      A
C37   C39   1.369 .      A
N9    C38   1.377 .      A
C38   N10   1.387 .      A
N10   C39   1.340 .      A
C39   C40   1.357 .      A
C42   C43   1.379 .      A
C42   C48   1.382 .      A
C43   C44   1.377 .      A
C44   C45   1.380 .      A
C45   N11   1.355 .      A
C45   C47   1.365 .      A
N11   C46   1.388 .      A
C46   N12   1.392 .      A
N12   C47   1.357 .      A
C47   C48   1.380 .      A
C50   C51   1.370 .      A
C50   C56   1.393 .      A
C51   C52   1.370 .      A
C52   C53   1.367 .      A
C53   N13   1.338 .      A
C53   C55   1.366 .      A
N13   C54   1.402 .      A
C54   N14   1.403 .      A
N14   C55   1.352 .      A
C55   C56   1.358 .      A
C58   C59   1.385 .      A
C58   C64   1.388 .      A
C59   C60   1.378 .      A
C60   C61   1.368 .      A
C61   N15   1.343 .      A
C61   C63   1.366 .      A
N15   C62   1.375 .      A
C62   N16   1.396 .      A
N16   C63   1.351 .      A
C63   C64   1.370 .      A
C66   C67   1.384 .      A
C66   C72   1.385 .      A
C67   C68   1.376 .      A
C68   C69   1.368 .      A
C69   N17   1.344 .      A
C69   C71   1.364 .      A
N17   C70   1.393 .      A
C70   N18   1.382 .      A
N18   C71   1.362 .      A
C71   C72   1.385 .      A
C74   C75   1.385 .      A
C74   C80   1.386 .      A
C75   C76   1.372 .      A
C76   C77   1.368 .      A
C77   N19   1.330 .      A
C77   C79   1.360 .      A
N19   C78   1.389 .      A
C78   N20   1.368 .      A
N20   C79   1.350 .      A
C79   C80   1.367 .      A
C82   C83   1.374 .      A
C82   C88   1.380 .      A
C83   C84   1.373 .      A
C84   C85   1.374 .      A
C85   N21   1.346 .      A
C85   C87   1.357 .      A
N21   C86   1.388 .      A
C86   N22   1.399 .      A
N22   C87   1.354 .      A
C87   C88   1.369 .      A
C90   C91   1.364 .      A
C90   C96   1.365 .      A
C91   C92   1.367 .      A
C92   C93   1.351 .      A
C93   N23   1.328 .      A
C93   C95   1.353 .      A
N23   C94   1.399 .      A
C94   N24   1.396 .      A
N24   C95   1.333 .      A
C95   C96   1.342 .      A
C98   C99   1.383 .      A
C98   C104  1.381 1_545  A
C99   C100  1.380 .      A
C100  C101  1.371 .      A
C101  N25   1.352 .      A
C101  C103  1.363 1_545  A
N25   C102  1.392 1_545  A
C102  N25   1.392 1_565  A
C102  N26   1.383 .      A
N26   C103  1.352 .      A
C103  C101  1.363 1_565  A
C103  C104  1.380 .      A
C104  C98   1.381 1_565  A
C106  C107  1.370 .      A
C106  C112  1.379 1_565  A
C107  C108  1.376 1_565  A
C108  C107  1.376 1_545  A
C108  C109  1.334 .      A
C109  N27   1.341 .      A
C109  C111  1.355 .      A
N27   C110  1.386 .      A
C110  N28   1.395 .      A
N28   C111  1.332 .      A
C111  C112  1.363 .      A
C112  C106  1.379 1_545  A
C114  C115  1.383 .      A
C114  C120  1.373 .      A
C115  C116  1.392 .      A
C116  C117  1.368 .      A
C117  N29   1.362 .      A
C117  C119  1.365 .      A
N29   C118  1.405 .      A
C118  N30   1.398 .      A
N30   C119  1.328 .      A
C119  C120  1.364 .      A
C122  C123  1.380 .      A
C122  C128  1.366 .      A
C123  C124  1.371 .      A
C124  C125  1.347 .      A
C125  N31   1.330 .      A
C125  C127  1.361 .      A
N31   C126  1.382 .      A
C126  N32   1.375 .      A
N32   C127  1.335 .      A
C127  C128  1.348 .      A
C130  C131  1.382 .      A
C130  C136  1.390 .      A
C131  C132  1.375 .      A
C132  C133  1.366 .      A
C133  N33   1.344 .      A
C133  C135  1.356 .      A
N33   C134  1.395 .      A
C134  N34   1.386 .      A
N34   C135  1.346 .      A
C135  C136  1.376 .      A
C138  C139  1.369 .      A
C138  C144  1.363 .      A
C139  C140  1.383 .      A
C140  C141  1.370 .      A
C141  N35   1.364 .      A
C141  C143  1.357 .      A
N35   C142  1.379 .      A
C142  N36   1.381 .      A
N36   C143  1.326 .      A
C143  C144  1.349 .      A
C146  C147  1.388 .      A
C146  C152  1.374 .      A
C147  C148  1.383 1_545  A
C148  C147  1.383 1_565  A
C148  C149  1.364 .      A
C149  N37   1.345 .      A
C149  C151  1.356 .      A
N37   C150  1.394 .      A
C150  N38   1.384 .      A
N38   C151  1.341 .      A
C151  C152  1.365 1_565  A
C152  C151  1.365 1_545  A
C154  C155  1.380 .      A
C154  C160  1.379 .      A
C155  C156  1.381 .      A
C156  C157  1.359 .      A
C157  N39   1.350 .      A
C157  C159  1.362 .      A
N39   C158  1.403 .      A
C158  N40   1.399 .      A
N40   C159  1.338 .      A
C159  C160  1.369 .      A
C162  C163  1.389 .      A
C162  C168  1.389 .      A
C163  C164  1.381 .      A
C164  C165  1.375 .      A
C165  N41   1.346 .      A
C165  C167  1.366 .      A
N41   C166  1.374 .      A
C166  N42   1.377 .      A
N42   C167  1.353 .      A
C167  C168  1.373 .      A
C170  C171  1.392 .      A
C170  C176  1.386 .      A
C171  C172  1.386 .      A
C172  C173  1.370 .      A
C173  N43   1.353 .      A
C173  C175  1.367 .      A
N43   C174  1.373 .      A
C174  N44   1.379 .      A
N44   C175  1.341 .      A
C175  C176  1.370 .      A
C178  C179  1.389 .      A
C178  C184  1.384 .      A
C179  C180  1.384 .      A
C180  C181  1.375 .      A
C181  N45   1.350 .      A
C181  C183  1.364 .      A
N45   C182  1.392 1_455  A
C182  N45   1.392 1_655  A
C182  N46   1.384 1_655  A
N46   C182  1.384 1_455  A
N46   C183  1.346 .      A
C183  C184  1.373 .      A
C186  C187  1.382 .      A
C186  C192  1.383 .      A
C187  C188  1.378 1_455  A
C188  C187  1.378 1_655  A
C188  C189  1.375 .      A
C189  N47   1.347 .      A
C189  C191  1.361 1_655  A
N47   C190  1.372 .      A
C190  N48   1.377 .      A
N48   C191  1.355 1_655  A
C191  C189  1.361 1_455  A
C191  N48   1.355 1_455  A
C191  C192  1.377 .      A
C194  C195  1.393 .      A
C194  C200  1.386 .      A
C195  C196  1.386 .      A
C196  C197  1.375 .      A
C197  N49   1.352 .      A
C197  C199  1.363 .      A
N49   C198  1.406 .      A
C198  N50   1.386 .      A
N50   C199  1.346 .      A
C199  C200  1.374 .      A
C202  C203  1.356 .      A
C202  C208  1.375 .      A
C203  C204  1.369 .      A
C204  C205  1.352 .      A
C205  N51   1.355 .      A
C205  C207  1.356 .      A
N51   C206  1.372 .      A
C206  N52   1.394 .      A
N52   C207  1.330 .      A
C207  C208  1.358 .      A
C210  C211  1.388 .      A
C210  C216  1.383 .      A
C211  C212  1.384 .      A
C212  C213  1.375 .      A
C213  N53   1.345 .      A
C213  C215  1.359 .      A
N53   C214  1.377 .      A
C214  N54   1.363 .      A
N54   C215  1.348 .      A
C215  C216  1.375 .      A
C218  C219  1.363 .      A
C218  C224  1.371 .      A
C219  C220  1.362 .      A
C220  C221  1.348 .      A
C221  N55   1.323 .      A
C221  C223  1.358 .      A
N55   C222  1.395 .      A
C222  N56   1.414 .      A
N56   C223  1.346 .      A
C223  C224  1.351 .      A
C226  C227  1.373 .      A
C226  C232  1.384 .      A
C227  C228  1.362 .      A
C228  C229  1.364 .      A
C229  N57   1.348 .      A
C229  C231  1.360 .      A
N57   C230  1.388 .      A
C230  N58   1.387 .      A
N58   C231  1.348 .      A
C231  C232  1.371 .      A
C234  C235  1.384 .      A
C234  C240  1.381 .      A
C235  C236  1.378 .      A
C236  C237  1.377 .      A
C237  N59   1.355 .      A
C237  C239  1.364 .      A
N59   C238  1.382 .      A
C238  N60   1.378 .      A
N60   C239  1.344 .      A
C239  C240  1.369 .      A
C242  C243  1.391 .      A
C242  C248  1.386 .      A
C243  C244  1.385 .      A
C244  C245  1.378 .      A
C245  N61   1.350 .      A
C245  C247  1.366 .      A
N61   C246  1.395 1_556  A
C246  N61   1.395 1_554  A
C246  N62   1.385 .      A
N62   C247  1.349 1_554  A
C247  N62   1.349 1_556  A
C247  C248  1.373 .      A
C250  C251  1.384 .      A
C250  C256  1.378 .      A
C251  C252  1.380 .      A
C252  C253  1.363 .      A
C253  N63   1.351 .      A
C253  C255  1.373 .      A
N63   C254  1.408 1_556  A
C254  N63   1.408 1_554  A
C254  N64   1.381 .      A
N64   C255  1.346 1_554  A
C255  N64   1.346 1_556  A
C255  C256  1.379 .      A
C258  C259  1.376 .      A
C258  C264  1.392 .      A
C259  C260  1.362 1_554  A
C260  C259  1.362 1_556  A
C260  C261  1.359 .      A
C261  N65   1.334 .      A
C261  C263  1.355 .      A
N65   C262  1.368 .      A
C262  N66   1.396 .      A
N66   C263  1.346 .      A
C263  C264  1.367 1_556  A
C264  C263  1.367 1_554  A
C266  C267  1.381 .      A
C266  C272  1.378 .      A
C267  C268  1.381 .      A
C268  C269  1.380 .      A
C269  N67   1.361 1_556  A
C269  C271  1.356 .      A
N67   C269  1.361 1_554  A
N67   C270  1.383 .      A
C270  N68   1.380 1_554  A
N68   C270  1.380 1_556  A
N68   C271  1.341 .      A
C271  C272  1.368 .      A
C274  C275  1.386 .      A
C274  C280  1.384 .      A
C275  C276  1.381 .      A
C276  C277  1.372 .      A
C277  N69   1.346 .      A
C277  C279  1.371 .      A
N69   C278  1.378 .      A
C278  N70   1.378 .      A
N70   C279  1.357 .      A
C279  C280  1.371 .      A
C282  C283  1.389 .      A
C282  C288  1.383 .      A
C283  C284  1.383 .      A
C284  C285  1.375 .      A
C285  N71   1.340 .      A
C285  C287  1.360 .      A
N71   C286  1.385 1_556  A
C286  N71   1.385 1_554  A
C286  N72   1.386 .      A
N72   C287  1.355 1_554  A
C287  N72   1.355 1_556  A
C287  C288  1.371 .      A
C290  C291  1.381 .      A
C290  C296  1.341 .      A
C291  C292  1.355 .      A
C292  C293  1.327 .      A
C293  N73   1.319 .      A
C293  C295  1.354 .      A
N73   C294  1.389 .      A
C294  N74   1.396 .      A
N74   C295  1.313 .      A
C295  C296  1.342 .      A
C298  C299  1.383 .      A
C298  C304  1.381 .      A
C299  C300  1.380 .      A
C300  C301  1.376 .      A
C301  N75   1.356 .      A
C301  C303  1.363 .      A
N75   C302  1.401 .      A
C302  N76   1.374 .      A
N76   C303  1.344 .      A
C303  C304  1.374 .      A
C306  C307  1.371 .      A
C306  C312  1.371 1_545  A
C307  C308  1.359 1_545  A
C308  C307  1.359 1_565  A
C308  C309  1.361 .      A
C309  N77   1.326 .      A
C309  C311  1.350 .      A
N77   C310  1.400 .      A
C310  N78   1.417 .      A
N78   C311  1.341 .      A
C311  C312  1.349 .      A
C312  C306  1.371 1_565  A
C314  C315  1.385 .      A
C314  C320  1.387 .      A
C315  C316  1.380 .      A
C316  C317  1.369 .      A
C317  N79   1.351 .      A
C317  C319  1.362 .      A
N79   C318  1.393 .      A
C318  N80   1.384 .      A
N80   C319  1.344 .      A
C319  C320  1.375 .      A
C322  C323  1.386 .      A
C322  C328  1.361 .      A
C323  C324  1.379 .      A
C324  C325  1.356 .      A
C325  N81   1.345 1_655  A
C325  C327  1.358 .      A
N81   C325  1.345 1_455  A
N81   C326  1.383 .      A
C326  N82   1.389 .      A
N82   C327  1.325 1_455  A
C327  N82   1.325 1_655  A
C327  C328  1.354 .      A
C330  C331  1.383 .      A
C330  C336  1.385 .      A
C331  C332  1.379 .      A
C332  C333  1.358 .      A
C333  N83   1.336 .      A
C333  C335  1.348 .      A
N83   C334  1.381 .      A
C334  N84   1.394 .      A
N84   C335  1.348 .      A
C335  C336  1.370 .      A
C338  C339  1.382 .      A
C338  C344  1.390 .      A
C339  C340  1.368 .      A
C340  C341  1.353 .      A
C341  N85   1.319 .      A
C341  C343  1.345 .      A
N85   C342  1.407 .      A
C342  N86   1.403 .      A
N86   C343  1.344 .      A
C343  C344  1.335 .      A
C346  C347  1.386 .      A
C346  C352  1.383 .      A
C347  C348  1.382 .      A
C348  C349  1.375 .      A
C349  N87   1.344 .      A
C349  C351  1.363 .      A
N87   C350  1.368 .      A
C350  N88   1.389 .      A
N88   C351  1.354 .      A
C351  C352  1.371 .      A
C354  C355  1.384 .      A
C354  C360  1.383 .      A
C355  C356  1.384 .      A
C356  C357  1.371 .      A
C357  N89   1.341 .      A
C357  C359  1.347 .      A
N89   C358  1.389 .      A
C358  N90   1.392 .      A
N90   C359  1.346 .      A
C359  C360  1.366 .      A
C362  C363  1.375 .      A
C362  C368  1.380 .      A
C363  C364  1.371 .      A
C364  C365  1.355 .      A
C365  N91   1.336 .      A
C365  C367  1.363 .      A
N91   C366  1.389 .      A
C366  N92   1.408 .      A
N92   C367  1.340 .      A
C367  C368  1.361 .      A
C370  C371  1.385 .      A
C370  C376  1.384 .      A
C371  C372  1.383 .      A
C372  C373  1.373 .      A
C373  N93   1.348 .      A
C373  C375  1.365 .      A
N93   C374  1.397 .      A
C374  N94   1.400 .      A
N94   C375  1.354 .      A
C375  C376  1.368 .      A
C378  C379  1.387 1_565  A
C378  C384  1.392 .      A
C379  C378  1.387 1_545  A
C379  C380  1.378 .      A
C380  C381  1.370 .      A
C381  N95   1.340 .      A
C381  C383  1.378 1_545  A
N95   C382  1.390 1_545  A
C382  N95   1.390 1_565  A
C382  N96   1.403 .      A
N96   C383  1.362 .      A
C383  C381  1.378 1_565  A
C383  C384  1.373 .      A
C386  C387  1.384 .      A
C386  C392  1.387 .      A
C387  C388  1.379 .      A
C388  C389  1.367 .      A
C389  N97   1.349 .      A
C389  C391  1.376 .      A
N97   C390  1.409 .      A
C390  N98   1.407 .      A
N98   C391  1.352 .      A
C391  C392  1.370 .      A
C394  C395  1.367 .      A
C394  C400  1.389 .      A
C395  C396  1.368 .      A
C396  C397  1.363 .      A
C397  N99   1.347 .      A
C397  C399  1.371 .      A
N99   C398  1.404 .      A
C398  N100  1.404 .      A
N100  C399  1.353 .      A
C399  C400  1.379 .      A
C402  C403  1.390 .      A
C402  C408  1.350 .      A
C403  C404  1.376 .      A
C404  C405  1.349 .      A
C405  N101  1.334 .      A
C405  C407  1.355 .      A
N101  C406  1.393 .      A
C406  N102  1.394 .      A
N102  C407  1.321 .      A
C407  C408  1.346 .      A
C410  C411  1.383 .      A
C410  C416  1.388 .      A
C411  C412  1.378 .      A
C412  C413  1.363 .      A
C413  N103  1.342 .      A
C413  C415  1.352 .      A
N103  C414  1.380 .      A
C414  N104  1.382 .      A
N104  C415  1.348 .      A
C415  C416  1.376 .      A
C418  C419  1.386 .      A
C418  C424  1.383 .      A
C419  C420  1.383 1_556  A
C420  C419  1.383 1_554  A
C420  C421  1.373 .      A
C421  N105  1.352 .      A
C421  C423  1.368 .      A
N105  C422  1.406 .      A
C422  N106  1.400 .      A
N106  C423  1.347 .      A
C423  C424  1.375 1_554  A
C424  C423  1.375 1_556  A
C426  C427  1.381 .      A
C426  C432  1.375 .      A
C427  C428  1.373 .      A
C428  C429  1.374 .      A
C429  N107  1.332 .      A
C429  C431  1.359 .      A
N107  C430  1.386 .      A
C430  N108  1.392 .      A
N108  C431  1.363 .      A
C431  C432  1.370 .      A
C434  C435  1.372 .      A
C434  C440  1.354 .      A
C435  C436  1.386 .      A
C436  C437  1.353 .      A
C437  N109  1.341 .      A
C437  C439  1.348 .      A
N109  C438  1.398 .      A
C438  N110  1.377 .      A
N110  C439  1.326 .      A
C439  C440  1.356 .      A
C442  C443  1.388 .      A
C442  C448  1.385 .      A
C443  C444  1.384 .      A
C444  C445  1.371 .      A
C445  N111  1.355 .      A
C445  C447  1.379 .      A
N111  C446  1.402 .      A
C446  N112  1.386 .      A
N112  C447  1.349 .      A
C447  C448  1.374 .      A
C450  C451  1.359 .      A
C450  C456  1.363 .      A
C451  C452  1.349 .      A
C452  C453  1.352 .      A
C453  N113  1.315 .      A
C453  C455  1.356 .      A
N113  C454  1.395 .      A
C454  N114  1.401 .      A
N114  C455  1.357 .      A
C455  C456  1.350 .      A
C458  C459  1.371 .      A
C458  C464  1.369 .      A
C459  C460  1.366 .      A
C460  C461  1.355 .      A
C461  N115  1.325 .      A
C461  C463  1.356 .      A
N115  C462  1.388 .      A
C462  N116  1.403 .      A
N116  C463  1.342 .      A
C463  C464  1.359 .      A
C466  C467  1.372 .      A
C466  C472  1.398 .      A
C467  C468  1.354 .      A
C468  C469  1.347 .      A
C469  N117  1.323 1_554  A
C469  C471  1.370 .      A
N117  C469  1.323 1_556  A
N117  C470  1.380 1_556  A
C470  N117  1.380 1_554  A
C470  N118  1.396 .      A
N118  C471  1.356 .      A
C471  C472  1.362 .      A
C474  C475  1.377 .      A
C474  C480  1.370 1_654  A
C475  C476  1.369 .      A
C476  C477  1.346 .      A
C477  N119  1.343 .      A
C477  C479  1.362 1_554  A
N119  C478  1.400 1_554  A
C478  N119  1.400 1_556  A
C478  N120  1.392 .      A
N120  C479  1.332 .      A
C479  C477  1.362 1_556  A
C479  C480  1.359 1_655  A
C480  C474  1.370 1_456  A
C480  C479  1.359 1_455  A
C482  C483  1.362 .      A
C482  C488  1.403 .      A
C483  C484  1.365 .      A
C484  C485  1.350 .      A
C485  N121  1.342 .      A
C485  C487  1.351 .      A
N121  C486  1.356 .      A
C486  N122  1.372 .      A
N122  C487  1.350 .      A
C487  C488  1.380 .      A
C490  C491  1.375 .      A
C490  C496  1.384 .      A
C491  C492  1.359 .      A
C492  C493  1.351 .      A
C493  N123  1.333 .      A
C493  C495  1.359 .      A
N123  C494  1.429 .      A
C494  N124  1.397 .      A
N124  C495  1.347 .      A
C495  C496  1.365 .      A
C498  C499  1.393 1_655  A
C498  C504  1.358 .      A
C499  C498  1.393 1_455  A
C499  C500  1.393 1_455  A
C500  C499  1.393 1_655  A
C500  C501  1.370 .      A
C501  N125  1.362 .      A
C501  C503  1.354 .      A
N125  C502  1.374 .      A
C502  N126  1.369 .      A
N126  C503  1.322 .      A
C503  C504  1.351 .      A
C506  C507  1.386 .      A
C506  C512  1.391 .      A
C507  C508  1.374 .      A
C508  C509  1.366 .      A
C509  N127  1.331 .      A
C509  C511  1.371 .      A
N127  C510  1.397 .      A
C510  N128  1.411 .      A
N128  C511  1.363 .      A
C511  C512  1.373 .      A
C514  C515  1.390 1_655  A
C514  C520  1.388 .      A
C515  C514  1.390 1_455  A
C515  C516  1.382 .      A
C516  C517  1.370 1_455  A
C517  C516  1.370 1_655  A
C517  N129  1.344 .      A
C517  C519  1.371 .      A
N129  C518  1.384 .      A
C518  N130  1.402 .      A
N130  C519  1.350 .      A
C519  C520  1.372 .      A
C522  C523  1.359 .      A
C522  C528  1.379 .      A
C523  C524  1.354 .      A
C524  C525  1.342 .      A
C525  N131  1.316 .      A
C525  C527  1.344 .      A
N131  C526  1.367 .      A
C526  N132  1.376 .      A
N132  C527  1.343 .      A
C527  C528  1.350 .      A
C530  C531  1.385 .      A
C530  C536  1.375 .      A
C531  C532  1.372 .      A
C532  C533  1.372 .      A
C533  N133  1.333 .      A
C533  C535  1.354 .      A
N133  C534  1.388 .      A
C534  N134  1.384 .      A
N134  C535  1.345 .      A
C535  C536  1.351 .      A
C538  C539  1.381 .      A
C538  C544  1.372 .      A
C539  C540  1.376 .      A
C540  C541  1.362 .      A
C541  N135  1.340 .      A
C541  C543  1.353 .      A
N135  C542  1.401 .      A
C542  N136  1.385 .      A
N136  C543  1.338 .      A
C543  C544  1.355 .      A
C546  C547  1.363 .      A
C546  C552  1.388 .      A
C547  C548  1.367 .      A
C548  C549  1.340 .      A
C549  N137  1.346 1_556  A
C549  C551  1.353 .      A
N137  C549  1.346 1_554  A
N137  C550  1.390 .      A
C550  N138  1.380 1_554  A
N138  C550  1.380 1_556  A
N138  C551  1.346 .      A
C551  C552  1.383 .      A
C554  C555  1.377 .      A
C554  C560  1.390 .      A
C555  C556  1.366 .      A
C556  C557  1.352 1_545  A
C557  C556  1.352 1_565  A
C557  N139  1.330 .      A
C557  C559  1.363 .      A
N139  C558  1.378 .      A
C558  N140  1.396 .      A
N140  C559  1.350 .      A
C559  C560  1.373 1_565  A
C560  C559  1.373 1_545  A
C562  C563  1.397 .      A
C562  C568  1.367 .      A
C563  C564  1.377 .      A
C564  C565  1.354 .      A
C565  N141  1.342 .      A
C565  C567  1.360 .      A
N141  C566  1.392 .      A
C566  N142  1.389 .      A
N142  C567  1.328 .      A
C567  C568  1.357 .      A
C570  C571  1.384 .      A
C570  C576  1.384 .      A
C571  C572  1.379 .      A
C572  C573  1.372 .      A
C573  N143  1.349 .      A
C573  C575  1.369 .      A
N143  C574  1.381 .      A
C574  N144  1.394 .      A
N144  C575  1.343 .      A
C575  C576  1.367 .      A
C578  C579  1.375 .      A
C578  C584  1.373 .      A
C579  C580  1.374 1_556  A
C580  C579  1.374 1_554  A
C580  C581  1.360 1_554  A
C581  C580  1.360 1_556  A
C581  N145  1.332 .      A
C581  C583  1.352 .      A
N145  C582  1.391 .      A
C582  N146  1.392 .      A
N146  C583  1.353 .      A
C583  C584  1.352 .      A
C586  C587  1.378 .      A
C586  C592  1.383 .      A
C587  C588  1.377 1_556  A
C588  C587  1.377 1_554  A
C588  C589  1.367 .      A
C589  N147  1.352 .      A
C589  C591  1.358 .      A
N147  C590  1.403 .      A
C590  N148  1.385 .      A
N148  C591  1.347 .      A
C591  C592  1.377 1_554  A
C592  C591  1.377 1_556  A
C594  C595  1.391 .      A
C594  C600  1.360 .      A
C595  C596  1.385 .      A
C596  C597  1.345 .      A
C597  N149  1.348 .      A
C597  C599  1.365 .      A
N149  C598  1.401 .      A
C598  N150  1.392 .      A
N150  C599  1.321 .      A
C599  C600  1.353 .      A
C602  C603  1.373 1_556  A
C602  C608  1.377 .      A
C603  C602  1.373 1_554  A
C603  C604  1.355 .      A
C604  C605  1.349 1_554  A
C605  C604  1.349 1_556  A
C605  N151  1.314 .      A
C605  C607  1.345 .      A
N151  C606  1.399 .      A
C606  N152  1.412 .      A
N152  C607  1.345 .      A
C607  C608  1.334 .      A
C610  C611  1.384 .      A
C610  C616  1.383 .      A
C611  C612  1.374 .      A
C612  C613  1.354 .      A
C613  N153  1.336 .      A
C613  C615  1.361 .      A
N153  C614  1.401 .      A
C614  N154  1.397 .      A
N154  C615  1.341 .      A
C615  C616  1.364 .      A
C618  C619  1.387 .      A
C618  C624  1.384 .      A
C619  C620  1.383 .      A
C620  C621  1.374 .      A
C621  N155  1.352 .      A
C621  C623  1.365 .      A
N155  C622  1.390 .      A
C622  N156  1.383 .      A
N156  C623  1.344 .      A
C623  C624  1.367 .      A
C626  C627  1.377 .      A
C626  C632  1.385 1_556  A
C627  C628  1.374 1_556  A
C628  C627  1.374 1_554  A
C628  C629  1.370 .      A
C629  N157  1.337 .      A
C629  C631  1.359 .      A
N157  C630  1.377 .      A
C630  N158  1.394 .      A
N158  C631  1.364 .      A
C631  C632  1.382 .      A
C632  C626  1.385 1_554  A
C634  C635  1.380 .      A
C634  C640  1.381 .      A
C635  C636  1.380 .      A
C636  C637  1.379 .      A
C637  N159  1.362 .      A
C637  C639  1.361 .      A
N159  C638  1.388 .      A
C638  N160  1.398 .      A
N160  C639  1.339 .      A
C639  C640  1.369 .      A
C642  C643  1.381 .      A
C642  C648  1.381 .      A
C643  C644  1.381 .      A
C644  C645  1.365 .      A
C645  N161  1.343 .      A
C645  C647  1.368 .      A
N161  C646  1.386 .      A
C646  N162  1.400 .      A
N162  C647  1.355 .      A
C647  C648  1.367 .      A
C650  C651  1.380 .      A
C650  C656  1.382 .      A
C651  C652  1.382 .      A
C652  C653  1.360 .      A
C653  N163  1.345 .      A
C653  C655  1.354 .      A
N163  C654  1.396 .      A
C654  N164  1.401 .      A
N164  C655  1.343 .      A
C655  C656  1.369 .      A
C658  C659  1.386 .      A
C658  C664  1.385 .      A
C659  C660  1.381 .      A
C660  C661  1.372 .      A
C661  N165  1.352 .      A
C661  C663  1.367 .      A
N165  C662  1.405 .      A
C662  N166  1.383 .      A
N166  C663  1.349 .      A
C663  C664  1.373 .      A
C666  C667  1.384 .      A
C666  C672  1.384 .      A
C667  C668  1.379 .      A
C668  C669  1.373 .      A
C669  N167  1.345 .      A
C669  C671  1.368 .      A
N167  C670  1.383 .      A
C670  N168  1.390 .      A
N168  C671  1.360 .      A
C671  C672  1.378 .      A
C674  C675  1.387 .      A
C674  C680  1.383 .      A
C675  C676  1.384 .      A
C676  C677  1.375 .      A
C677  N169  1.346 .      A
C677  C679  1.357 .      A
N169  C678  1.384 .      A
C678  N170  1.381 .      A
N170  C679  1.349 .      A
C679  C680  1.371 .      A
C682  C683  1.372 .      A
C682  C688  1.371 .      A
C683  C684  1.375 .      A
C684  C685  1.369 .      A
C685  N171  1.349 .      A
C685  C687  1.360 .      A
N171  C686  1.390 .      A
C686  N172  1.400 .      A
N172  C687  1.339 .      A
C687  C688  1.355 .      A
C690  C691  1.380 .      A
C690  C696  1.382 .      A
C691  C692  1.378 .      A
C692  C693  1.370 .      A
C693  N173  1.347 .      A
C693  C695  1.362 .      A
N173  C694  1.397 .      A
C694  N174  1.393 .      A
N174  C695  1.349 .      A
C695  C696  1.373 .      A
C698  C699  1.370 .      A
C698  C704  1.418 .      A
C699  C700  1.347 .      A
C700  C701  1.359 .      A
C701  N175  1.315 .      A
C701  C703  1.356 .      A
N175  C702  1.381 .      A
C702  N176  1.396 .      A
N176  C703  1.377 .      A
C703  C704  1.377 .      A
C706  C707  1.383 .      A
C706  C712  1.381 1_556  A
C707  C708  1.379 1_556  A
C708  C707  1.379 1_554  A
C708  C709  1.374 .      A
C709  N177  1.346 .      A
C709  C711  1.360 .      A
N177  C710  1.376 .      A
C710  N178  1.384 .      A
N178  C711  1.357 .      A
C711  C712  1.378 .      A
C712  C706  1.381 1_554  A
C714  C715  1.389 .      A
C714  C720  1.384 .      A
C715  C716  1.383 .      A
C716  C717  1.378 .      A
C717  N179  1.355 .      A
C717  C719  1.368 .      A
N179  C718  1.382 .      A
C718  N180  1.395 .      A
N180  C719  1.345 .      A
C719  C720  1.372 .      A
C722  C723  1.387 .      A
C722  C728  1.383 .      A
C723  C724  1.383 .      A
C724  C725  1.364 .      A
C725  N181  1.354 .      A
C725  C727  1.375 .      A
N181  C726  1.403 .      A
C726  N182  1.415 .      A
N182  C727  1.344 .      A
C727  C728  1.372 .      A
C730  C731  1.386 .      A
C730  C736  1.383 .      A
C731  C732  1.382 .      A
C732  C733  1.346 .      A
C733  N183  1.351 .      A
C733  C735  1.361 .      A
N183  C734  1.381 .      A
C734  N184  1.379 .      A
N184  C735  1.334 .      A
C735  C736  1.369 .      A
C738  C739  1.388 .      A
C738  C744  1.387 .      A
C739  C740  1.381 .      A
C740  C741  1.371 .      A
C741  N185  1.341 .      A
C741  C743  1.365 .      A
N185  C742  1.404 .      A
C742  N186  1.381 .      A
N186  C743  1.351 .      A
C743  C744  1.374 .      A
C746  C747  1.346 .      A
C746  C752  1.344 .      A
C747  C748  1.376 .      A
C748  C749  1.342 .      A
C749  N187  1.355 .      A
C749  C751  1.355 .      A
N187  C750  1.386 .      A
C750  N188  1.382 .      A
N188  C751  1.314 .      A
C751  C752  1.361 .      A
C754  C755  1.386 .      A
C754  C760  1.386 .      A
C755  C756  1.380 .      A
C756  C757  1.374 .      A
C757  N189  1.346 .      A
C757  C759  1.360 .      A
N189  C758  1.384 .      A
C758  N190  1.375 .      A
N190  C759  1.351 .      A
C759  C760  1.370 .      A
C762  C763  1.394 .      A
C762  C768  1.385 .      A
C763  C764  1.388 .      A
C764  C765  1.375 .      A
C765  N191  1.350 .      A
C765  C767  1.362 .      A
N191  C766  1.390 .      A
C766  N192  1.373 .      A
N192  C767  1.343 .      A
C767  C768  1.369 .      A
C770  C771  1.388 .      A
C770  C776  1.383 .      A
C771  C772  1.384 .      A
C772  C773  1.372 .      A
C773  N193  1.358 .      A
C773  C775  1.368 .      A
N193  C774  1.373 .      A
C774  N194  1.377 .      A
N194  C775  1.345 .      A
C775  C776  1.372 .      A
C778  C779  1.383 .      A
C778  C784  1.383 .      A
C779  C780  1.383 .      A
C780  C781  1.372 .      A
C781  N195  1.357 .      A
C781  C783  1.359 .      A
N195  C782  1.407 .      A
C782  N196  1.377 .      A
N196  C783  1.342 .      A
C783  C784  1.377 .      A
C786  C787  1.368 .      A
C786  C792  1.388 .      A
C787  C788  1.368 .      A
C788  C789  1.373 .      A
C789  N197  1.333 .      A
C789  C791  1.358 .      A
N197  C790  1.398 .      A
C790  N198  1.393 .      A
N198  C791  1.370 .      A
C791  C792  1.368 .      A
C794  C795  1.370 .      A
C794  C800  1.404 .      A
C795  C796  1.346 .      A
C796  C797  1.351 .      A
C797  N199  1.320 .      A
C797  C799  1.362 .      A
N199  C798  1.406 .      A
C798  N200  1.392 .      A
N200  C799  1.363 .      A
C799  C800  1.367 .      A
C802  C803  1.376 .      A
C802  C808  1.383 .      A
C803  C804  1.379 1_545  A
C804  C803  1.379 1_565  A
C804  C805  1.378 .      A
C805  N201  1.364 .      A
C805  C807  1.360 1_565  A
N201  C806  1.398 .      A
C806  N202  1.377 1_565  A
N202  C806  1.377 1_545  A
N202  C807  1.338 .      A
C807  C805  1.360 1_545  A
C807  C808  1.372 .      A
C810  C811  1.378 .      A
C810  C816  1.381 .      A
C811  C812  1.388 .      A
C812  C813  1.364 .      A
C813  N203  1.343 .      A
C813  C815  1.352 .      A
N203  C814  1.382 .      A
C814  N204  1.381 .      A
N204  C815  1.345 .      A
C815  C816  1.371 .      A
C818  C819  1.391 .      A
C818  C824  1.388 .      A
C819  C820  1.384 .      A
C820  C821  1.370 .      A
C821  N205  1.347 .      A
C821  C823  1.365 .      A
N205  C822  1.398 .      A
C822  N206  1.367 .      A
N206  C823  1.348 .      A
C823  C824  1.371 .      A
C826  C827  1.386 1_565  A
C826  C832  1.384 .      A
C827  C826  1.386 1_545  A
C827  C828  1.382 .      A
C828  C829  1.369 .      A
C829  N207  1.353 .      A
C829  C831  1.374 1_545  A
N207  C830  1.414 1_545  A
C830  N207  1.414 1_565  A
C830  N208  1.382 .      A
N208  C831  1.346 .      A
C831  C829  1.374 1_565  A
C831  C832  1.371 .      A
C834  C835  1.390 .      A
C834  C840  1.385 .      A
C835  C836  1.382 .      A
C836  C837  1.375 .      A
C837  N209  1.353 1_455  A
C837  C839  1.371 .      A
N209  C837  1.353 1_655  A
N209  C838  1.384 .      A
C838  N210  1.362 .      A
N210  C839  1.349 1_655  A
C839  N210  1.349 1_455  A
C839  C840  1.369 .      A
C842  C843  1.390 .      A
C842  C848  1.387 .      A
C843  C844  1.382 .      A
C844  C845  1.373 .      A
C845  N211  1.346 .      A
C845  C847  1.371 .      A
N211  C846  1.372 1_455  A
C846  N211  1.372 1_655  A
C846  N212  1.380 1_655  A
N212  C846  1.380 1_455  A
N212  C847  1.355 .      A
C847  C848  1.369 .      A
C850  C851  1.368 .      A
C850  C856  1.388 .      A
C851  C852  1.355 .      A
C852  C853  1.368 .      A
C853  N213  1.327 .      A
C853  C855  1.365 .      A
N213  C854  1.377 .      A
C854  N214  1.409 .      A
N214  C855  1.364 .      A
C855  C856  1.371 .      A
C858  C859  1.387 .      A
C858  C864  1.387 .      A
C859  C860  1.381 .      A
C860  C861  1.371 .      A
C861  N215  1.346 .      A
C861  C863  1.365 .      A
N215  C862  1.385 .      A
C862  N216  1.401 .      A
N216  C863  1.351 .      A
C863  C864  1.372 .      A
C866  C867  1.393 .      A
C866  C872  1.390 .      A
C867  C868  1.384 .      A
C868  C869  1.370 .      A
C869  N217  1.343 1_455  A
C869  C871  1.366 .      A
N217  C869  1.343 1_655  A
N217  C870  1.381 .      A
C870  N218  1.368 .      A
N218  C871  1.351 1_655  A
C871  N218  1.351 1_455  A
C871  C872  1.373 .      A
C874  C875  1.389 .      A
C874  C880  1.384 .      A
C875  C876  1.385 .      A
C876  C877  1.373 .      A
C877  N219  1.353 1_455  A
C877  C879  1.369 .      A
N219  C877  1.353 1_655  A
N219  C878  1.396 1_655  A
C878  N219  1.396 1_455  A
C878  N220  1.381 .      A
N220  C879  1.341 .      A
C879  C880  1.373 .      A
C882  C883  1.376 .      A
C882  C888  1.388 .      A
C883  C884  1.360 .      A
C884  C885  1.354 .      A
C885  N221  1.342 .      A
C885  C887  1.357 .      A
N221  C886  1.396 .      A
C886  N222  1.402 .      A
N222  C887  1.349 .      A
C887  C888  1.371 .      A
C890  C891  1.386 .      A
C890  C896  1.386 .      A
C891  C892  1.381 .      A
C892  C893  1.373 .      A
C893  N223  1.345 .      A
C893  C895  1.365 .      A
N223  C894  1.379 .      A
C894  N224  1.372 .      A
N224  C895  1.351 .      A
C895  C896  1.376 .      A
C898  C899  1.381 .      A
C898  C904  1.390 .      A
C899  C900  1.374 .      A
C900  C901  1.367 .      A
C901  N225  1.337 .      A
C901  C903  1.357 .      A
N225  C902  1.382 .      A
C902  N226  1.388 .      A
N226  C903  1.354 .      A
C903  C904  1.372 .      A
C906  C907  1.391 .      A
C906  C912  1.389 .      A
C907  C908  1.382 .      A
C908  C909  1.371 .      A
C909  N227  1.342 .      A
C909  C911  1.374 .      A
N227  C910  1.371 .      A
C910  N228  1.378 .      A
N228  C911  1.352 .      A
C911  C912  1.368 .      A
C914  C915  1.390 .      A
C914  C920  1.385 .      A
C915  C916  1.383 .      A
C916  C917  1.373 .      A
C917  N229  1.355 .      A
C917  C919  1.369 .      A
N229  C918  1.376 .      A
C918  N230  1.361 .      A
N230  C919  1.345 .      A
C919  C920  1.372 .      A
C922  C923  1.373 .      A
C922  C928  1.380 .      A
C923  C924  1.376 .      A
C924  C925  1.373 .      A
C925  N231  1.343 .      A
C925  C927  1.353 .      A
N231  C926  1.387 .      A
C926  N232  1.375 .      A
N232  C927  1.357 .      A
C927  C928  1.375 .      A
C930  C931  1.390 .      A
C930  C936  1.387 .      A
C931  C932  1.382 .      A
C932  C933  1.370 .      A
C933  N233  1.339 .      A
C933  C935  1.362 .      A
N233  C934  1.369 .      A
C934  N234  1.379 .      A
N234  C935  1.352 .      A
C935  C936  1.370 .      A
C938  C939  1.374 .      A
C938  C944  1.382 .      A
C939  C940  1.373 .      A
C940  C941  1.369 .      A
C941  N235  1.348 .      A
C941  C943  1.358 .      A
N235  C942  1.375 .      A
C942  N236  1.378 .      A
N236  C943  1.348 .      A
C943  C944  1.363 .      A
C946  C947  1.377 .      A
C946  C952  1.381 .      A
C947  C948  1.377 .      A
C948  C949  1.359 .      A
C949  N237  1.351 .      A
C949  C951  1.353 .      A
N237  C950  1.398 .      A
C950  N238  1.396 .      A
N238  C951  1.347 .      A
C951  C952  1.378 .      A
C954  C955  1.391 .      A
C954  C960  1.384 .      A
C955  C956  1.386 .      A
C956  C957  1.372 .      A
C957  N239  1.354 .      A
C957  C959  1.366 .      A
N239  C958  1.388 .      A
C958  N240  1.380 .      A
N240  C959  1.339 .      A
C959  C960  1.371 .      A
C962  C963  1.392 .      A
C962  C968  1.387 .      A
C963  C964  1.383 .      A
C964  C965  1.374 .      A
C965  N241  1.347 1_556  A
C965  C967  1.361 .      A
N241  C965  1.347 1_554  A
N241  C966  1.381 .      A
C966  N242  1.396 .      A
N242  C967  1.346 1_554  A
C967  N242  1.346 1_556  A
C967  C968  1.369 .      A
C970  C971  1.379 .      A
C970  C976  1.382 .      A
C971  C972  1.376 .      A
C972  C973  1.376 .      A
C973  N243  1.351 1_556  A
C973  C975  1.365 .      A
N243  C973  1.351 1_554  A
N243  C974  1.379 .      A
C974  N244  1.371 1_554  A
N244  C974  1.371 1_556  A
N244  C975  1.356 .      A
C975  C976  1.372 .      A
C978  C979  1.381 .      A
C978  C984  1.386 .      A
C979  C980  1.374 .      A
C980  C981  1.358 .      A
C981  N245  1.340 .      A
C981  C983  1.356 .      A
N245  C982  1.377 .      A
C982  N246  1.389 .      A
N246  C983  1.339 .      A
C983  C984  1.369 .      A
C986  C987  1.383 .      A
C986  C992  1.383 .      A
C987  C988  1.380 .      A
C988  C989  1.373 1_556  A
C989  C988  1.373 1_554  A
C989  N247  1.348 .      A
C989  C991  1.358 1_554  A
N247  C990  1.391 .      A
C990  N248  1.368 .      A
N248  C991  1.354 1_554  A
C991  C989  1.358 1_556  A
C991  N248  1.354 1_556  A
C991  C992  1.380 .      A
C994  C995  1.366 .      A
C994  C1000 1.373 .      A
C995  C996  1.372 .      A
C996  C997  1.357 1_554  A
C997  C996  1.357 1_556  A
C997  N249  1.342 .      A
C997  C999  1.360 .      A
N249  C998  1.385 .      A
C998  N250  1.392 .      A
N250  C999  1.345 .      A
C999  C1000 1.367 1_556  A
C1000 C999  1.367 1_554  A
C1002 C1003 1.387 .      A
C1002 C1008 1.380 .      A
C1003 C1004 1.383 .      A
C1004 C1005 1.374 .      A
C1005 N251  1.351 .      A
C1005 C1007 1.359 .      A
N251  C1006 1.387 1_556  A
C1006 N251  1.387 1_554  A
C1006 N252  1.385 .      A
N252  C1007 1.343 1_554  A
C1007 N252  1.343 1_556  A
C1007 C1008 1.370 .      A
C1010 C1011 1.385 .      A
C1010 C1016 1.380 .      A
C1011 C1012 1.380 .      A
C1012 C1013 1.368 .      A
C1013 N253  1.352 .      A
C1013 C1015 1.359 .      A
N253  C1014 1.382 .      A
C1014 N254  1.391 .      A
N254  C1015 1.346 .      A
C1015 C1016 1.374 .      A
C1018 C1019 1.385 .      A
C1018 C1024 1.358 .      A
C1019 C1020 1.385 .      A
C1020 C1021 1.357 .      A
C1021 N255  1.350 .      A
C1021 C1023 1.352 .      A
N255  C1022 1.381 .      A
C1022 N256  1.383 .      A
N256  C1023 1.325 .      A
C1023 C1024 1.355 .      A
C1026 C1027 1.380 .      A
C1026 C1032 1.379 1_556  A
C1027 C1028 1.380 1_556  A
C1028 C1027 1.380 1_554  A
C1028 C1029 1.379 .      A
C1029 N257  1.361 .      A
C1029 C1031 1.358 .      A
N257  C1030 1.376 .      A
C1030 N258  1.379 .      A
N258  C1031 1.344 .      A
C1031 C1032 1.380 .      A
C1032 C1026 1.379 1_554  A
C1034 C1035 1.374 .      A
C1034 C1040 1.375 .      A
C1035 C1036 1.385 .      A
C1036 C1037 1.349 .      A
C1037 N259  1.352 .      A
C1037 C1039 1.352 .      A
N259  C1038 1.394 .      A
C1038 N260  1.385 .      A
N260  C1039 1.336 .      A
C1039 C1040 1.377 .      A
C1042 C1043 1.382 .      A
C1042 C1048 1.383 .      A
C1043 C1044 1.379 .      A
C1044 C1045 1.377 .      A
C1045 N261  1.345 .      A
C1045 C1047 1.358 .      A
N261  C1046 1.397 .      A
C1046 N262  1.370 .      A
N262  C1047 1.354 .      A
C1047 C1048 1.369 .      A
C1050 C1051 1.374 .      A
C1050 C1056 1.389 .      A
C1051 C1052 1.375 .      A
C1052 C1053 1.332 .      A
C1053 N263  1.343 .      A
C1053 C1055 1.339 .      A
N263  C1054 1.385 .      A
C1054 N264  1.378 .      A
N264  C1055 1.326 .      A
C1055 C1056 1.359 .      A
S1    O1    1.531 .      D
S1    O2    1.533 .      D
S2    O4    1.531 .      D
S2    O5    1.530 .      D
S3    O7    1.530 .      D
S3    O8    1.530 1_545  D
O8    S3    1.530 1_565  D
S4    O10   1.525 1_565  D
S4    O11   1.529 1_565  D
O10   S4    1.525 1_545  D
O11   S4    1.529 1_545  D
S5    O13   1.528 .      D
S5    O14   1.528 .      D
S6    O16   1.527 .      D
S6    O17   1.531 1_565  D
O17   S6    1.531 1_545  D
S7    O19   1.533 .      D
S7    O20   1.531 .      D
S8    O22   1.519 .      D
S8    O23   1.520 .      D
S9    O25   1.522 .      D
S9    O26   1.518 .      D
S10   O28   1.524 .      D
S10   O29   1.518 .      D
S11   O31   1.531 .      D
S11   O32   1.521 .      D
S12   O34   1.524 .      D
S12   O35   1.534 .      D
S13   O37   1.517 1_565  D
S13   O38   1.504 .      D
O37   S13   1.517 1_545  D
S14   O40   1.523 .      D
S14   O41   1.524 .      D
S15   O43   1.534 .      D
S15   O44   1.530 .      D
S16   O46   1.525 .      D
S16   O47   1.513 .      D
S17   O49   1.526 .      D
S17   O50   1.535 .      D
S18   O52   1.521 .      D
S18   O53   1.528 .      D
S19   O55   1.518 .      D
S19   O56   1.529 .      D
S20   O58   1.533 .      D
S20   O59   1.519 .      D
S21   O61   1.510 .      D
S21   O62   1.531 .      D
S22   O64   1.533 .      D
S22   O65   1.524 .      D
S23   O67   1.528 .      D
S23   O68   1.525 .      D
S24   O70   1.530 .      D
S24   O71   1.522 .      D
S25   O73   1.515 .      D
S25   O74   1.529 .      D
S26   O76   1.524 .      D
S26   O77   1.529 .      D
S27   O79   1.505 .      D
S27   O80   1.534 .      D
S28   O82   1.526 .      D
S28   O83   1.530 .      D
S29   O85   1.526 .      D
S29   O86   1.527 .      D
S30   O88   1.520 .      D
S30   O89   1.511 .      D
S31   O91   1.530 .      D
S31   O92   1.526 .      D
S32   O94   1.522 .      D
S32   O95   1.531 .      D
S33   O97   1.525 .      D
S33   O98   1.519 1_455  D
O98   S33   1.519 1_655  D
S34   O100  1.525 .      D
S34   O101  1.520 .      D
S35   O103  1.532 .      D
S35   O104  1.528 1_556  D
O104  S35   1.528 1_554  D
S36   O106  1.533 1_565  D
S36   O107  1.528 .      D
O106  S36   1.533 1_545  D
S37   O109  1.534 .      D
S37   O110  1.524 .      D
S38   O112  1.533 .      D
S38   O113  1.533 .      D
S39   O115  1.532 1_655  D
S39   O116  1.534 .      D
O115  S39   1.532 1_455  D
S40   O118  1.528 .      D
S40   O119  1.534 .      D
S41   O121  1.529 .      D
S41   O122  1.507 .      D
S42   O124  1.529 .      D
S42   O125  1.524 .      D
S43   O127  1.529 .      D
S43   O128  1.497 .      D
S44   O130  1.534 .      D
S44   O131  1.521 .      D
S45   O133  1.532 .      D
S45   O134  1.524 .      D
S46   O136  1.527 1_545  D
S46   O137  1.524 1_545  D
O136  S46   1.527 1_565  D
O137  S46   1.524 1_565  D
S47   O139  1.531 .      D
S47   O140  1.534 .      D
S48   O142  1.527 .      D
S48   O143  1.523 .      D
S49   O145  1.516 .      D
S49   O146  1.531 .      D
S50   O148  1.528 .      D
S50   O149  1.528 .      D
S51   O151  1.525 .      D
S51   O152  1.524 .      D
S52   O154  1.530 .      D
S52   O155  1.524 .      D
S53   O157  1.521 .      D
S53   O158  1.530 .      D
S54   O160  1.529 .      D
S54   O161  1.531 .      D
S55   O163  1.521 .      D
S55   O164  1.528 .      D
S56   O166  1.535 .      D
S56   O167  1.527 .      D
S57   O169  1.528 .      D
S57   O170  1.532 .      D
S58   O172  1.527 .      D
S58   O173  1.535 .      D
S59   O175  1.528 .      D
S59   O176  1.535 .      D
S60   O178  1.518 .      D
S60   O179  1.529 1_655  D
O179  S60   1.529 1_455  D
S61   O181  1.515 1_554  D
S61   O182  1.502 1_554  D
O181  S61   1.515 1_556  D
O182  S61   1.502 1_556  D
S62   O184  1.536 .      D
S62   O185  1.527 .      D
S63   O187  1.534 .      D
S63   O188  1.528 .      D
S64   O190  1.530 .      D
S64   O191  1.534 .      D
S65   O193  1.532 .      D
S65   O194  1.514 .      D
S66   O196  1.523 .      D
S66   O197  1.507 .      D
S67   O199  1.521 .      D
S67   O200  1.535 .      D
S68   O202  1.533 .      D
S68   O203  1.518 .      D
S69   O205  1.509 .      D
S69   O206  1.529 1_665  D
O206  S69   1.529 1_445  D
S70   O208  1.518 .      D
S70   O209  1.535 .      D
S71   O211  1.528 .      D
S71   O212  1.533 .      D
S72   O214  1.527 .      D
S72   O215  1.519 .      D
S73   O217  1.524 .      D
S73   O218  1.513 .      D
S74   O220  1.522 .      D
S74   O221  1.530 .      D
S75   O223  1.522 .      D
S75   O224  1.530 .      D
S76   O226  1.525 .      D
S76   O227  1.533 .      D
S77   O229  1.524 .      D
S77   O230  1.530 .      D
S78   O232  1.524 .      D
S78   O233  1.528 .      D
S79   O235  1.530 .      D
S79   O236  1.535 .      D
S80   O238  1.531 .      D
S80   O239  1.526 .      D
S81   O241  1.516 .      D
S81   O242  1.525 .      D
S82   O244  1.534 .      D
S82   O245  1.533 .      D
S83   O247  1.516 .      D
S83   O248  1.521 .      D
S84   O250  1.534 .      D
S84   O251  1.521 .      D
S85   O253  1.532 .      D
S85   O254  1.529 .      D
S86   O256  1.524 .      D
S86   O257  1.534 .      D
S87   O259  1.532 .      D
S87   O260  1.531 .      D
S88   O262  1.504 .      D
S88   O263  1.514 .      D
S89   O265  1.534 .      D
S89   O266  1.531 .      D
S90   O268  1.529 .      D
S90   O269  1.522 .      D
S91   O271  1.534 1_565  D
S91   O272  1.528 .      D
O271  S91   1.534 1_545  D
S92   O274  1.526 .      D
S92   O275  1.498 .      D
S93   O277  1.537 .      D
S93   O278  1.532 .      D
S94   O280  1.522 .      D
S94   O281  1.525 .      D
S95   O283  1.531 .      D
S95   O284  1.528 .      D
S96   O286  1.506 .      D
S96   O287  1.532 .      D
S97   O289  1.510 .      D
S97   O290  1.500 .      D
S98   O292  1.524 .      D
S98   O293  1.523 .      D
S99   O295  1.526 .      D
S99   O296  1.525 .      D
S100  O298  1.531 1_545  D
S100  O299  1.532 .      D
O298  S100  1.531 1_565  D
S101  O301  1.520 .      D
S101  O302  1.522 .      D
S102  O304  1.511 .      D
S102  O305  1.531 .      D
S103  O307  1.528 .      D
S103  O308  1.525 .      D
S104  O310  1.527 .      D
S104  O311  1.518 .      D
S105  O313  1.526 .      D
S105  O314  1.521 .      D
S106  O316  1.511 .      D
S106  O317  1.527 .      D
S107  O319  1.529 1_565  D
S107  O320  1.530 .      D
O319  S107  1.529 1_545  D
S108  O322  1.515 1_565  D
S108  O323  1.531 1_655  D
O322  S108  1.515 1_545  D
O323  S108  1.531 1_455  D
S109  O325  1.517 .      D
S109  O326  1.518 .      D
S110  O328  1.531 .      D
S110  O329  1.520 .      D
S111  O331  1.527 .      D
S111  O332  1.532 .      D
S112  O334  1.526 .      D
S112  O335  1.517 .      D
S113  O337  1.526 .      D
S113  O338  1.531 .      D
S114  O340  1.515 .      D
S114  O341  1.518 .      D
S115  O343  1.515 .      D
S115  O344  1.531 .      D
S116  O346  1.528 .      D
S116  O347  1.535 .      D
S117  O349  1.526 .      D
S117  O350  1.516 .      D
S118  O352  1.521 .      D
S118  O353  1.524 .      D
S119  O355  1.529 .      D
S119  O356  1.533 .      D
S120  O358  1.521 .      D
S120  O359  1.529 .      D
S121  O361  1.526 .      D
S121  O362  1.533 .      D
S122  O364  1.531 .      D
S122  O365  1.531 .      D
S123  O367  1.523 .      D
S123  O368  1.511 .      D
S124  O370  1.520 .      D
S124  O371  1.532 .      D
S125  O373  1.527 1_554  D
S125  O374  1.529 .      D
O373  S125  1.527 1_556  D
S126  O376  1.536 .      D
S126  O377  1.535 .      D
S127  O379  1.519 .      D
S127  O380  1.535 .      D
S128  O382  1.518 .      D
S128  O383  1.533 .      D
S129  O385  1.526 .      D
S129  O386  1.523 .      D
S130  O388  1.529 1_554  D
S130  O389  1.528 .      D
O388  S130  1.529 1_556  D
S131  O391  1.534 .      D
S131  O392  1.513 .      D
S132  O394  1.532 .      D
S132  O395  1.521 .      D
