data_str_m1_o12271_FAU
_audit_creation_date              2015-10-01T06:27:58-0700
_symmetry_space_group_name_H-M    P1
_symmetry_Int_Tables_number       1
_space_group_crystal_system       triclinic
loop_
_symmetry_equiv_pos_as_xyz
  x,y,z
_cell_length_a                    37.3836798
_cell_length_b                    37.5357394
_cell_length_c                    36.5125764
_cell_angle_alpha                 119.615638
_cell_angle_beta                  118.406396
_cell_angle_gamma                 91.2992638
_cell_volume                      36885.8698743

loop_
_atom_site_label
_atom_site_type_symbol
_atom_site_description
_atom_site_fract_x
_atom_site_fract_y
_atom_site_fract_z
_atom_type_partial_charge
Zn1   Zn    Zn3+2 0.664716 0.030374 0.298824 0.000000
Zn2   Zn    Zn3+2 0.832972 0.028614 0.290353 0.000000
Zn3   Zn    Zn3+2 0.823846 0.192844 0.270743 0.000000
Zn4   Zn    Zn3+2 0.770925 0.274659 0.146535 0.000000
Zn5   Zn    Zn3+2 0.574089 0.816287 0.136001 0.000000
Zn6   Zn    Zn3+2 0.643201 0.019346 0.466922 0.000000
Zn7   Zn    Zn3+2 0.763415 0.811741 0.492763 0.000000
Zn8   Zn    Zn3+2 0.183330 0.561080 0.821038 0.000000
Zn9   Zn    Zn3+2 0.400808 0.450293 0.773182 0.000000
Zn10  Zn    Zn3+2 0.579822 0.268718 0.787706 0.000000
Zn11  Zn    Zn3+2 0.648859 0.200710 0.283570 0.000000
Zn12  Zn    Zn3+2 0.764740 0.634156 0.974756 0.000000
Zn13  Zn    Zn3+2 0.949972 0.822473 0.323286 0.000000
Zn14  Zn    Zn3+2 0.760704 0.814480 0.140367 0.000000
Zn15  Zn    Zn3+2 0.008198 0.383982 0.468313 0.000000
Zn16  Zn    Zn3+2 0.646908 0.379747 0.640341 0.000000
Zn17  Zn    Zn3+2 0.825015 0.560263 0.646447 0.000000
Zn18  Zn    Zn3+2 0.006273 0.558420 0.647133 0.000000
Zn19  Zn    Zn3+2 0.579953 0.447735 0.784263 0.000000
Zn20  Zn    Zn3+2 0.417815 0.459717 0.166528 0.000000
Zn21  Zn    Zn3+2 0.411214 0.276883 0.980176 0.000000
Zn22  Zn    Zn3+2 0.205347 0.384536 0.025651 0.000000
Zn23  Zn    Zn3+2 0.604211 0.460675 0.325446 0.000000
Zn24  Zn    Zn3+2 0.405914 0.631499 0.153780 0.000000
Zn25  Zn    Zn3+2 0.205525 0.202633 0.838900 0.000000
Zn26  Zn    Zn3+2 0.020339 0.387799 0.009868 0.000000
Zn27  Zn    Zn3+2 0.418233 0.288333 0.805864 0.000000
Zn28  Zn    Zn3+2 0.190548 0.556421 0.009401 0.000000
Zn29  Zn    Zn3+2 0.187872 0.384625 0.639218 0.000000
Zn30  Zn    Zn3+2 0.018011 0.036540 0.470351 0.000000
Zn31  Zn    Zn3+2 0.405073 0.628155 0.967980 0.000000
Zn32  Zn    Zn3+2 0.588930 0.279825 0.146747 0.000000
Zn33  Zn    Zn3+2 0.651458 0.381043 0.465777 0.000000
Zn34  Zn    Zn3+2 0.578671 0.813257 0.321452 0.000000
Zn35  Zn    Zn3+2 0.833560 0.210242 0.826577 0.000000
Zn36  Zn    Zn3+2 0.774527 0.648702 0.522584 0.000000
Zn37  Zn    Zn3+2 0.013117 0.559706 0.001499 0.000000
Zn38  Zn    Zn3+2 0.950277 0.457768 0.154492 0.000000
Zn39  Zn    Zn3+2 0.200934 0.208969 0.653266 0.000000
Zn40  Zn    Zn3+2 0.022526 0.040449 0.651435 0.000000
Zn41  Zn    Zn3+2 0.649654 0.199485 0.648576 0.000000
Zn42  Zn    Zn3+2 0.954015 0.649595 0.520541 0.000000
Zn43  Zn    Zn3+2 0.952369 0.823871 0.512758 0.000000
Zn44  Zn    Zn3+2 0.824332 0.556476 0.821890 0.000000
Zn45  Zn    Zn3+2 0.947860 0.638186 0.151880 0.000000
Zn46  Zn    Zn3+2 0.942759 0.463394 0.333792 0.000000
Zn47  Zn    Zn3+2 0.833334 0.034762 0.638231 0.000000
Zn48  Zn    Zn3+2 0.765080 0.274106 0.968315 0.000000
Br1   Br    Br    0.728687 0.127568 0.299178 0.000000
C1    C     C_R   0.765852 0.137947 0.362054 0.000000
C2    C     C_R   0.781231 0.178934 0.405120 0.000000
C3    C     C_R   0.816414 0.191224 0.451071 0.000000
C4    C     C_R   0.836196 0.161709 0.453420 0.000000
C5    C     C_R   0.818236 0.119457 0.411126 0.000000
C6    C     C_R   0.782515 0.106798 0.364291 0.000000
C7    C     C_R   0.761908 0.060580 0.319991 0.000000
N1    N     N_R   0.728665 0.037252 0.315729 0.000000
C8    C     C_R   0.746750 0.011364 0.327900 0.000000
C9    C     C_R   0.735199 0.992457 0.345827 0.000000
C10   C     C_R   0.764752 0.977986 0.370594 0.000000
C11   C     C_R   0.806811 0.993115 0.388498 0.000000
C12   C     C_R   0.817748 0.016741 0.374342 0.000000
C13   C     C_R   0.785545 0.015491 0.333845 0.000000
N2    N     N_R   0.792110 0.039940 0.319083 0.000000
H1    H     H_    0.767943 0.202641 0.401916 0.000000
H2    H     H_    0.829504 0.224191 0.484332 0.000000
H3    H     H_    0.865065 0.171195 0.488926 0.000000
H4    H     H_    0.833797 0.097389 0.416457 0.000000
H5    H     H_    0.704019 0.988421 0.340199 0.000000
H6    H     H_    0.756862 0.958355 0.380746 0.000000
H7    H     H_    0.830592 0.987519 0.414796 0.000000
H8    H     H_    0.850918 0.035590 0.394692 0.000000
Br2   Br    Br    0.020464 0.316390 0.386102 0.000000
C14   C     C_R   0.000856 0.265879 0.379444 0.000000
C15   C     C_R   0.028358 0.242251 0.383169 0.000000
C16   C     C_R   0.018390 0.206446 0.382261 0.000000
C17   C     C_R   0.981436 0.195442 0.379204 0.000000
C18   C     C_R   0.953813 0.218840 0.375407 0.000000
C19   C     C_R   0.961731 0.252774 0.372318 0.000000
C20   C     C_R   0.931259 0.276930 0.369842 0.000000
N3    N     N_R   0.946269 0.321934 0.409042 0.000000
C21   C     C_R   0.909542 0.324647 0.406706 0.000000
C22   C     C_R   0.905088 0.356736 0.442325 0.000000
C23   C     C_R   0.863604 0.354211 0.430128 0.000000
C24   C     C_R   0.829058 0.324500 0.380416 0.000000
C25   C     C_R   0.834188 0.289357 0.348187 0.000000
C26   C     C_R   0.874763 0.287673 0.365381 0.000000
N4    N     N_R   0.885564 0.254907 0.339870 0.000000
H9    H     H_    0.057878 0.252105 0.386790 0.000000
H10   H     H_    0.039312 0.187093 0.383955 0.000000
H11   H     H_    0.972146 0.166171 0.375666 0.000000
H12   H     H_    0.925264 0.209644 0.373705 0.000000
H13   H     H_    0.932624 0.383519 0.477020 0.000000
H14   H     H_    0.857818 0.379367 0.455947 0.000000
H15   H     H_    0.797471 0.327481 0.366687 0.000000
H16   H     H_    0.807579 0.265934 0.309632 0.000000
Br3   Br    Br    0.834752 0.038756 0.165373 0.000000
C27   C     C_R   0.781253 0.039849 0.158792 0.000000
C28   C     C_R   0.745978 0.015277 0.109081 0.000000
C29   C     C_R   0.705291 0.013679 0.097906 0.000000
C30   C     C_R   0.699663 0.034433 0.136931 0.000000
C31   C     C_R   0.734729 0.060385 0.186735 0.000000
C32   C     C_R   0.775962 0.064307 0.198841 0.000000
C33   C     C_R   0.812739 0.095211 0.252498 0.000000
N5    N     N_R   0.839512 0.076613 0.274588 0.000000
C34   C     C_R   0.877555 0.096294 0.286207 0.000000
C35   C     C_R   0.909990 0.078812 0.289713 0.000000
C36   C     C_R   0.938231 0.092333 0.281117 0.000000
C37   C     C_R   0.933466 0.122509 0.269014 0.000000
C38   C     C_R   0.901866 0.141433 0.268064 0.000000
C39   C     C_R   0.874758 0.128584 0.277977 0.000000
N6    N     N_R   0.835537 0.132831 0.263129 0.000000
H17   H     H_    0.750611 0.997637 0.078593 0.000000
H18   H     H_    0.677711 0.994457 0.058843 0.000000
H19   H     H_    0.667396 0.031492 0.128145 0.000000
H20   H     H_    0.729940 0.078617 0.216418 0.000000
H21   H     H_    0.910468 0.051727 0.292943 0.000000
H22   H     H_    0.962895 0.077770 0.281430 0.000000
H23   H     H_    0.954734 0.131461 0.260497 0.000000
H24   H     H_    0.896850 0.163426 0.256537 0.000000
Br4   Br    Br    0.658197 0.214699 0.958785 0.000000
C40   C     C_R   0.680500 0.274734 0.013059 0.000000
C41   C     C_R   0.653272 0.298172 0.015856 0.000000
C42   C     C_R   0.669180 0.341517 0.055330 0.000000
C43   C     C_R   0.712789 0.361418 0.091946 0.000000
C44   C     C_R   0.740033 0.337475 0.089910 0.000000
C45   C     C_R   0.723876 0.294605 0.049875 0.000000
C46   C     C_R   0.751532 0.268780 0.047661 0.000000
N7    N     N_R   0.765682 0.254269 0.078495 0.000000
C47   C     C_R   0.781299 0.224071 0.057335 0.000000
C48   C     C_R   0.806819 0.205486 0.078807 0.000000
C49   C     C_R   0.826386 0.180515 0.057015 0.000000
C50   C     C_R   0.825680 0.180236 0.018879 0.000000
C51   C     C_R   0.805101 0.204562 0.002881 0.000000
C52   C     C_R   0.778397 0.222003 0.017422 0.000000
N8    N     N_R   0.761054 0.251618 0.011022 0.000000
H25   H     H_    0.619621 0.282399 0.986181 0.000000
H26   H     H_    0.647848 0.360331 0.056831 0.000000
H27   H     H_    0.725550 0.395612 0.122404 0.000000
H28   H     H_    0.774083 0.352430 0.118907 0.000000
H29   H     H_    0.813708 0.212562 0.113731 0.000000
H30   H     H_    0.846109 0.165211 0.073286 0.000000
H31   H     H_    0.845702 0.165648 0.006295 0.000000
H32   H     H_    0.814958 0.214459 0.985355 0.000000
Br5   Br    Br    0.853531 0.281691 0.270555 0.000000
C53   C     C_R   0.883447 0.252619 0.244366 0.000000
C54   C     C_R   0.925699 0.256975 0.260160 0.000000
C55   C     C_R   0.934613 0.224862 0.228700 0.000000
C56   C     C_R   0.900983 0.188602 0.182932 0.000000
C57   C     C_R   0.859080 0.185803 0.168850 0.000000
C58   C     C_R   0.851698 0.220553 0.199940 0.000000
C59   C     C_R   0.811748 0.221651 0.197863 0.000000
N9    N     N_R   0.798365 0.188304 0.199121 0.000000
C60   C     C_R   0.767472 0.159533 0.148602 0.000000
C61   C     C_R   0.758588 0.115221 0.120192 0.000000
C62   C     C_R   0.733859 0.092052 0.067741 0.000000
C63   C     C_R   0.720361 0.113392 0.044186 0.000000
C64   C     C_R   0.731910 0.158259 0.072898 0.000000
C65   C     C_R   0.755907 0.180613 0.124921 0.000000
N10   N     N_R   0.780134 0.223038 0.158454 0.000000
H33   H     H_    0.951182 0.285239 0.295378 0.000000
H34   H     H_    0.967638 0.227719 0.240210 0.000000
H35   H     H_    0.907408 0.162429 0.158475 0.000000
H36   H     H_    0.832860 0.156943 0.133607 0.000000
H37   H     H_    0.773272 0.099410 0.138380 0.000000
H38   H     H_    0.726478 0.057216 0.044977 0.000000
H39   H     H_    0.701821 0.094986 0.003182 0.000000
H40   H     H_    0.723132 0.175099 0.054745 0.000000
Br6   Br    Br    0.861154 0.399656 0.169870 0.000000
C66   C     C_R   0.903978 0.378242 0.199730 0.000000
C67   C     C_R   0.935388 0.372374 0.189897 0.000000
C68   C     C_R   0.955280 0.342723 0.193918 0.000000
C69   C     C_R   0.941110 0.316356 0.203577 0.000000
C70   C     C_R   0.908723 0.321485 0.211631 0.000000
C71   C     C_R   0.892580 0.354317 0.213102 0.000000
C72   C     C_R   0.864642 0.365778 0.230659 0.000000
N11   N     N_R   0.878897 0.406935 0.275495 0.000000
C73   C     C_R   0.846624 0.400834 0.281072 0.000000
C74   C     C_R   0.837304 0.430784 0.312607 0.000000
C75   C     C_R   0.803310 0.415278 0.312436 0.000000
C76   C     C_R   0.782088 0.371299 0.285468 0.000000
C77   C     C_R   0.789613 0.341966 0.250799 0.000000
C78   C     C_R   0.819020 0.358552 0.246356 0.000000
N12   N     N_R   0.825981 0.335771 0.210203 0.000000
H41   H     H_    0.940155 0.387268 0.173177 0.000000
H42   H     H_    0.978823 0.336992 0.184567 0.000000
H43   H     H_    0.954409 0.291045 0.203381 0.000000
H44   H     H_    0.896128 0.300145 0.217153 0.000000
H45   H     H_    0.853762 0.464798 0.333758 0.000000
H46   H     H_    0.792599 0.436919 0.333296 0.000000
H47   H     H_    0.758326 0.360253 0.289766 0.000000
H48   H     H_    0.772561 0.307499 0.227729 0.000000
Br7   Br    Br    0.655373 0.745795 0.012152 0.000000
C79   C     C_R   0.628948 0.788424 0.022738 0.000000
C80   C     C_R   0.603692 0.789508 0.981081 0.000000
C81   C     C_R   0.578136 0.815080 0.981773 0.000000
C82   C     C_R   0.576438 0.837979 0.023596 0.000000
C83   C     C_R   0.601405 0.836347 0.064869 0.000000
C84   C     C_R   0.631355 0.815209 0.067758 0.000000
C85   C     C_R   0.653584 0.811827 0.111834 0.000000
N13   N     N_R   0.624469 0.797291 0.119517 0.000000
C86   C     C_R   0.636066 0.764306 0.120546 0.000000
C87   C     C_R   0.615255 0.735850 0.122881 0.000000
C88   C     C_R   0.634377 0.707594 0.131226 0.000000
C89   C     C_R   0.672075 0.706765 0.133639 0.000000
C90   C     C_R   0.691209 0.734061 0.127798 0.000000
C91   C     C_R   0.674289 0.764708 0.124224 0.000000
N14   N     N_R   0.690308 0.797457 0.123787 0.000000
H49   H     H_    0.603143 0.769013 0.947024 0.000000
H50   H     H_    0.558171 0.815633 0.948950 0.000000
H51   H     H_    0.554755 0.856487 0.023500 0.000000
H52   H     H_    0.596750 0.851317 0.094993 0.000000
H53   H     H_    0.586956 0.738833 0.123646 0.000000
H54   H     H_    0.620576 0.686897 0.137093 0.000000
H55   H     H_    0.687052 0.685714 0.142685 0.000000
H56   H     H_    0.720712 0.734349 0.130424 0.000000
Br8   Br    Br    0.669566 0.924590 0.172679 0.000000
C92   C     C_R   0.690677 0.911219 0.219656 0.000000
C93   C     C_R   0.724726 0.896107 0.230240 0.000000
C94   C     C_R   0.736048 0.884068 0.262696 0.000000
C95   C     C_R   0.715294 0.890034 0.286363 0.000000
C96   C     C_R   0.679554 0.903033 0.273450 0.000000
C97   C     C_R   0.667343 0.913585 0.239449 0.000000
C98   C     C_R   0.627100 0.921221 0.216592 0.000000
N15   N     N_R   0.624771 0.963182 0.231828 0.000000
C99   C     C_R   0.586890 0.953444 0.190465 0.000000
C100  C     C_R   0.563382 0.980151 0.185796 0.000000
C101  C     C_R   0.524281 0.962563 0.139874 0.000000
C102  C     C_R   0.512512 0.921118 0.098196 0.000000
C103  C     C_R   0.536433 0.894645 0.104228 0.000000
C104  C     C_R   0.570181 0.909943 0.152225 0.000000
N16   N     N_R   0.592082 0.887180 0.168670 0.000000
H57   H     H_    0.741169 0.891739 0.211865 0.000000
H58   H     H_    0.760112 0.868776 0.268855 0.000000
H59   H     H_    0.725269 0.880996 0.312104 0.000000
H60   H     H_    0.660631 0.902581 0.287935 0.000000
H61   H     H_    0.573878 0.013152 0.217195 0.000000
H62   H     H_    0.503836 0.982006 0.135652 0.000000
H63   H     H_    0.483876 0.909038 0.061314 0.000000
H64   H     H_    0.528661 0.862747 0.072400 0.000000
Br9   Br    Br    0.830720 0.079399 0.572725 0.000000
C105  C     C_R   0.795769 0.111525 0.576003 0.000000
C106  C     C_R   0.807325 0.152077 0.586382 0.000000
C107  C     C_R   0.777298 0.172068 0.578412 0.000000
C108  C     C_R   0.735105 0.148027 0.552463 0.000000
C109  C     C_R   0.723721 0.105921 0.538953 0.000000
C110  C     C_R   0.755257 0.089264 0.556457 0.000000
C111  C     C_R   0.745638 0.047539 0.551312 0.000000
N17   N     N_R   0.703351 0.019081 0.518162 0.000000
C112  C     C_R   0.706446 0.992106 0.533079 0.000000
C113  C     C_R   0.674059 0.961120 0.519319 0.000000
C114  C     C_R   0.679581 0.950003 0.551669 0.000000
C115  C     C_R   0.717960 0.970978 0.598220 0.000000
C116  C     C_R   0.752214 0.997824 0.609019 0.000000
C117  C     C_R   0.746680 0.004809 0.573325 0.000000
N18   N     N_R   0.774780 0.036008 0.582872 0.000000
H65   H     H_    0.839362 0.167353 0.598713 0.000000
H66   H     H_    0.785780 0.204152 0.586879 0.000000
H67   H     H_    0.711289 0.162478 0.542093 0.000000
H68   H     H_    0.690530 0.087847 0.517495 0.000000
H69   H     H_    0.644332 0.946510 0.485098 0.000000
H70   H     H_    0.652949 0.927472 0.542118 0.000000
H71   H     H_    0.721123 0.966928 0.626758 0.000000
H72   H     H_    0.781702 0.014444 0.646172 0.000000
Br10  Br    Br    0.527677 0.063650 0.479078 0.000000
C118  C     C_R   0.553581 0.101538 0.471264 0.000000
C119  C     C_R   0.525914 0.108858 0.435996 0.000000
C120  C     C_R   0.541735 0.129405 0.421730 0.000000
C121  C     C_R   0.584895 0.139601 0.440177 0.000000
C122  C     C_R   0.612942 0.135080 0.477901 0.000000
C123  C     C_R   0.598146 0.118331 0.496060 0.000000
C124  C     C_R   0.627874 0.112051 0.535209 0.000000
N19   N     N_R   0.632598 0.134899 0.582519 0.000000
C125  C     C_R   0.628583 0.102643 0.588221 0.000000
C126  C     C_R   0.623903 0.103820 0.623694 0.000000
C127  C     C_R   0.614436 0.065299 0.618923 0.000000
C128  C     C_R   0.613392 0.027535 0.581642 0.000000
C129  C     C_R   0.622160 0.028499 0.549505 0.000000
C130  C     C_R   0.627351 0.065394 0.551531 0.000000
N20   N     N_R   0.629463 0.069927 0.518291 0.000000
H73   H     H_    0.491465 0.096634 0.417781 0.000000
H74   H     H_    0.519885 0.133686 0.392681 0.000000
H75   H     H_    0.596827 0.150706 0.424542 0.000000
H76   H     H_    0.645948 0.142256 0.490505 0.000000
H77   H     H_    0.626740 0.133539 0.653583 0.000000
H78   H     H_    0.608868 0.064350 0.644769 0.000000
H79   H     H_    0.607481 0.997775 0.579005 0.000000
H80   H     H_    0.623634 0.000885 0.522286 0.000000
Br11  Br    Br    0.747677 0.999030 0.456538 0.000000
C131  C     C_R   0.754422 0.044667 0.451072 0.000000
C132  C     C_R   0.795341 0.067085 0.470603 0.000000
C133  C     C_R   0.806003 0.108943 0.485287 0.000000
C134  C     C_R   0.774954 0.128093 0.480048 0.000000
C135  C     C_R   0.733328 0.103880 0.457511 0.000000
C136  C     C_R   0.722039 0.061071 0.438649 0.000000
C137  C     C_R   0.676037 0.035605 0.401138 0.000000
N21   N     N_R   0.656111 0.037214 0.358373 0.000000
C138  C     C_R   0.618905 0.041898 0.353970 0.000000
C139  C     C_R   0.587557 0.048959 0.320922 0.000000
C140  C     C_R   0.549978 0.049157 0.319515 0.000000
C141  C     C_R   0.544354 0.042063 0.350592 0.000000
C142  C     C_R   0.577301 0.037566 0.385884 0.000000
C143  C     C_R   0.614394 0.037886 0.387008 0.000000
N22   N     N_R   0.649063 0.032430 0.417057 0.000000
H81   H     H_    0.819788 0.052671 0.478759 0.000000
H82   H     H_    0.839215 0.127584 0.505146 0.000000
H83   H     H_    0.783935 0.162327 0.495669 0.000000
H84   H     H_    0.708250 0.117747 0.455148 0.000000
H85   H     H_    0.591243 0.053081 0.295784 0.000000
H86   H     H_    0.524204 0.053284 0.292754 0.000000
H87   H     H_    0.513768 0.039586 0.346767 0.000000
H88   H     H_    0.573296 0.032116 0.410283 0.000000
Br12  Br    Br    0.850615 0.969628 0.707731 0.000000
C144  C     C_R   0.791464 0.934319 0.660206 0.000000
C145  C     C_R   0.768936 0.925475 0.677343 0.000000
C146  C     C_R   0.726351 0.898699 0.643802 0.000000
C147  C     C_R   0.706481 0.879106 0.592468 0.000000
C148  C     C_R   0.729229 0.886637 0.574905 0.000000
C149  C     C_R   0.771560 0.915033 0.608744 0.000000
C150  C     C_R   0.793696 0.921167 0.587337 0.000000
N23   N     N_R   0.811574 0.962147 0.598966 0.000000
C151  C     C_R   0.812651 0.948162 0.557953 0.000000
C152  C     C_R   0.822129 0.973526 0.544788 0.000000
C153  C     C_R   0.820297 0.954450 0.500490 0.000000
C154  C     C_R   0.813380 0.910842 0.472766 0.000000
C155  C     C_R   0.801810 0.885570 0.485213 0.000000
C156  C     C_R   0.799288 0.904246 0.526476 0.000000
N24   N     N_R   0.787223 0.884467 0.543211 0.000000
H89   H     H_    0.785039 0.938648 0.717144 0.000000
H90   H     H_    0.708968 0.892131 0.657656 0.000000
H91   H     H_    0.673333 0.857487 0.565945 0.000000
H92   H     H_    0.713361 0.870977 0.534506 0.000000
H93   H     H_    0.830269 0.007516 0.567843 0.000000
H94   H     H_    0.825693 0.973718 0.488280 0.000000
H95   H     H_    0.815289 0.896269 0.440159 0.000000
H96   H     H_    0.796555 0.852163 0.463606 0.000000
Br13  Br    Br    0.847914 0.847248 0.604439 0.000000
C157  C     C_R   0.873769 0.883513 0.597269 0.000000
C158  C     C_R   0.897954 0.923519 0.641421 0.000000
C159  C     C_R   0.919681 0.954090 0.643406 0.000000
C160  C     C_R   0.915589 0.945710 0.600358 0.000000
C161  C     C_R   0.894483 0.904609 0.556766 0.000000
C162  C     C_R   0.873445 0.872548 0.554647 0.000000
C163  C     C_R   0.858473 0.828006 0.510678 0.000000
N25   N     N_R   0.885560 0.811921 0.494426 0.000000
C164  C     C_R   0.858266 0.772467 0.452550 0.000000
C165  C     C_R   0.869289 0.740865 0.423978 0.000000
C166  C     C_R   0.836737 0.702995 0.379829 0.000000
C167  C     C_R   0.794813 0.696609 0.366644 0.000000
C168  C     C_R   0.785019 0.727737 0.397902 0.000000
C169  C     C_R   0.817276 0.765746 0.442134 0.000000
N26   N     N_R   0.815638 0.800180 0.479255 0.000000
H97   H     H_    0.902811 0.929468 0.675776 0.000000
H98   H     H_    0.943630 0.981874 0.680253 0.000000
H99   H     H_    0.935101 0.968788 0.602731 0.000000
H100  H     H_    0.896056 0.897120 0.525026 0.000000
H101  H     H_    0.902049 0.746289 0.433978 0.000000
H102  H     H_    0.843736 0.679454 0.354430 0.000000
H103  H     H_    0.769300 0.667259 0.331154 0.000000
H104  H     H_    0.752398 0.722219 0.384465 0.000000
Br14  Br    Br    0.118931 0.349933 0.678609 0.000000
C170  C     C_R   0.097957 0.396744 0.692363 0.000000
C171  C     C_R   0.064307 0.391214 0.697325 0.000000
C172  C     C_R   0.045608 0.422552 0.708176 0.000000
C173  C     C_R   0.058339 0.458275 0.710171 0.000000
C174  C     C_R   0.090330 0.463094 0.702662 0.000000
C175  C     C_R   0.113904 0.434963 0.698926 0.000000
C176  C     C_R   0.159161 0.455867 0.718433 0.000000
N27   N     N_R   0.179791 0.438721 0.692910 0.000000
C177  C     C_R   0.204385 0.475766 0.707381 0.000000
C178  C     C_R   0.217711 0.479298 0.679974 0.000000
C179  C     C_R   0.232400 0.520160 0.692069 0.000000
C180  C     C_R   0.234262 0.556702 0.731256 0.000000
C181  C     C_R   0.217451 0.551977 0.755382 0.000000
C182  C     C_R   0.202986 0.511651 0.743014 0.000000
N28   N     N_R   0.177359 0.501297 0.754531 0.000000
H105  H     H_    0.053178 0.362092 0.693666 0.000000
H106  H     H_    0.020026 0.418169 0.713155 0.000000
H107  H     H_    0.044670 0.483584 0.719898 0.000000
H108  H     H_    0.100002 0.492160 0.705652 0.000000
H109  H     H_    0.212748 0.451017 0.646357 0.000000
H110  H     H_    0.242574 0.523672 0.670617 0.000000
H111  H     H_    0.245709 0.588342 0.740070 0.000000
H112  H     H_    0.209889 0.577790 0.777743 0.000000
Br15  Br    Br    0.138434 0.680573 0.823171 0.000000
C183  C     C_R   0.151416 0.654031 0.772868 0.000000
C184  C     C_R   0.176156 0.681473 0.772433 0.000000
C185  C     C_R   0.189511 0.664912 0.740013 0.000000
C186  C     C_R   0.179176 0.620728 0.708950 0.000000
C187  C     C_R   0.154144 0.593161 0.708909 0.000000
C188  C     C_R   0.139268 0.609107 0.739807 0.000000
C189  C     C_R   0.111020 0.579494 0.738118 0.000000
N29   N     N_R   0.128589 0.577714 0.780525 0.000000
C190  C     C_R   0.096128 0.580403 0.787862 0.000000
C191  C     C_R   0.097574 0.590699 0.830158 0.000000
C192  C     C_R   0.067471 0.607320 0.837974 0.000000
C193  C     C_R   0.035100 0.611592 0.802667 0.000000
C194  C     C_R   0.032128 0.597800 0.758651 0.000000
C195  C     C_R   0.061713 0.581253 0.751429 0.000000
N30   N     N_R   0.067405 0.576756 0.716380 0.000000
H113  H     H_    0.185777 0.716314 0.798453 0.000000
H114  H     H_    0.209011 0.686577 0.739978 0.000000
H115  H     H_    0.190172 0.607520 0.683936 0.000000
H116  H     H_    0.145734 0.558787 0.683973 0.000000
H117  H     H_    0.123414 0.590974 0.859502 0.000000
H118  H     H_    0.071395 0.620844 0.873760 0.000000
H119  H     H_    0.014129 0.628165 0.811112 0.000000
H120  H     H_    0.012062 0.606028 0.733872 0.000000
Br16  Br    Br    0.314466 0.520085 0.802103 0.000000
C196  C     C_R   0.318742 0.519034 0.752847 0.000000
C197  C     C_R   0.329585 0.557088 0.757410 0.000000
C198  C     C_R   0.330734 0.555525 0.719490 0.000000
C199  C     C_R   0.320366 0.515861 0.676921 0.000000
C200  C     C_R   0.308193 0.477976 0.672006 0.000000
C201  C     C_R   0.306770 0.479401 0.709913 0.000000
C202  C     C_R   0.296910 0.438690 0.705282 0.000000
N31   N     N_R   0.331107 0.422618 0.710798 0.000000
C203  C     C_R   0.311275 0.384752 0.664231 0.000000
C204  C     C_R   0.330418 0.359668 0.642685 0.000000
C205  C     C_R   0.305324 0.327304 0.590860 0.000000
C206  C     C_R   0.261160 0.319014 0.562296 0.000000
C207  C     C_R   0.241812 0.343447 0.585154 0.000000
C208  C     C_R   0.267605 0.376016 0.636052 0.000000
N32   N     N_R   0.255866 0.407051 0.662322 0.000000
H121  H     H_    0.337058 0.588021 0.790631 0.000000
H122  H     H_    0.339595 0.585241 0.723092 0.000000
H123  H     H_    0.321292 0.514383 0.647077 0.000000
H124  H     H_    0.300043 0.447174 0.638268 0.000000
H125  H     H_    0.364100 0.365779 0.665943 0.000000
H126  H     H_    0.320003 0.307792 0.572572 0.000000
H127  H     H_    0.241950 0.293824 0.521903 0.000000
H128  H     H_    0.208399 0.339916 0.562839 0.000000
Br17  Br    Br    0.571470 0.494263 0.876388 0.000000
C209  C     C_R   0.549270 0.534902 0.865690 0.000000
C210  C     C_R   0.569555 0.578766 0.899220 0.000000
C211  C     C_R   0.557587 0.605700 0.883530 0.000000
C212  C     C_R   0.524339 0.588102 0.834193 0.000000
C213  C     C_R   0.502010 0.544133 0.802059 0.000000
C214  C     C_R   0.513740 0.518269 0.819463 0.000000
C215  C     C_R   0.493474 0.471831 0.785530 0.000000
N33   N     N_R   0.512721 0.450032 0.760253 0.000000
C216  C     C_R   0.477909 0.427624 0.711371 0.000000
C217  C     C_R   0.475026 0.396619 0.668152 0.000000
C218  C     C_R   0.436733 0.379724 0.621604 0.000000
C219  C     C_R   0.401739 0.392924 0.619256 0.000000
C220  C     C_R   0.403524 0.420203 0.663393 0.000000
C221  C     C_R   0.441086 0.434566 0.708717 0.000000
N34   N     N_R   0.448406 0.457457 0.755263 0.000000
H129  H     H_    0.595057 0.591321 0.937127 0.000000
H130  H     H_    0.575206 0.640169 0.909011 0.000000
H131  H     H_    0.515713 0.608640 0.820870 0.000000
H132  H     H_    0.476223 0.530014 0.762970 0.000000
H133  H     H_    0.501675 0.385452 0.670667 0.000000
H134  H     H_    0.434172 0.356271 0.586902 0.000000
H135  H     H_    0.372324 0.380301 0.582750 0.000000
H136  H     H_    0.376331 0.430093 0.662277 0.000000
Br18  Br    Br    0.572537 0.224136 0.859373 0.000000
C222  C     C_R   0.597691 0.186832 0.830679 0.000000
C223  C     C_R   0.579580 0.143771 0.809922 0.000000
C224  C     C_R   0.604632 0.117810 0.810551 0.000000
C225  C     C_R   0.648079 0.136135 0.834714 0.000000
C226  C     C_R   0.665220 0.178896 0.853017 0.000000
C227  C     C_R   0.639519 0.203231 0.846155 0.000000
C228  C     C_R   0.660436 0.249487 0.869664 0.000000
N35   N     N_R   0.636103 0.274329 0.856051 0.000000
C229  C     C_R   0.655289 0.311982 0.902544 0.000000
C230  C     C_R   0.646117 0.349559 0.915448 0.000000
C231  C     C_R   0.668091 0.382984 0.966438 0.000000
C232  C     C_R   0.692303 0.375515 0.002639 0.000000
C233  C     C_R   0.705055 0.339610 0.989026 0.000000
C234  C     C_R   0.688684 0.310189 0.939155 0.000000
N36   N     N_R   0.698052 0.273947 0.919706 0.000000
H137  H     H_    0.546919 0.131754 0.798339 0.000000
H138  H     H_    0.591069 0.084422 0.796047 0.000000
H139  H     H_    0.668141 0.116231 0.837621 0.000000
H140  H     H_    0.698746 0.193714 0.871072 0.000000
H141  H     H_    0.622324 0.352918 0.887079 0.000000
H142  H     H_    0.665392 0.414814 0.978809 0.000000
H143  H     H_    0.706901 0.401112 0.042297 0.000000
H144  H     H_    0.731400 0.337501 0.016807 0.000000
Br19  Br    Br    0.552959 0.115525 0.674505 0.000000
C235  C     C_R   0.612874 0.149169 0.724062 0.000000
C236  C     C_R   0.637349 0.127237 0.740545 0.000000
C237  C     C_R   0.681055 0.146277 0.773769 0.000000
C238  C     C_R   0.700218 0.187477 0.790469 0.000000
C239  C     C_R   0.676607 0.208008 0.771249 0.000000
C240  C     C_R   0.633457 0.190581 0.740028 0.000000
C241  C     C_R   0.612379 0.213349 0.718316 0.000000
N37   N     N_R   0.604831 0.197392 0.670975 0.000000
C242  C     C_R   0.561343 0.183893 0.641936 0.000000
C243  C     C_R   0.535083 0.153536 0.590542 0.000000
C244  C     C_R   0.491289 0.137384 0.568407 0.000000
C245  C     C_R   0.474701 0.150960 0.598096 0.000000
C246  C     C_R   0.501753 0.180849 0.650351 0.000000
C247  C     C_R   0.545164 0.197433 0.671602 0.000000
N38   N     N_R   0.577612 0.220904 0.721340 0.000000
H145  H     H_    0.621942 0.094915 0.727536 0.000000
H146  H     H_    0.699952 0.129276 0.787656 0.000000
H147  H     H_    0.734213 0.203143 0.816250 0.000000
H148  H     H_    0.691349 0.238020 0.779470 0.000000
H149  H     H_    0.548733 0.139606 0.568979 0.000000
H150  H     H_    0.470025 0.112942 0.527906 0.000000
H151  H     H_    0.440445 0.137924 0.580355 0.000000
H152  H     H_    0.488469 0.192162 0.672790 0.000000
Br20  Br    Br    0.500892 0.256146 0.643893 0.000000
C248  C     C_R   0.485716 0.301525 0.676264 0.000000
C249  C     C_R   0.443924 0.295953 0.643554 0.000000
C250  C     C_R   0.424045 0.322886 0.660758 0.000000
C251  C     C_R   0.446826 0.356040 0.711272 0.000000
C252  C     C_R   0.490332 0.365178 0.742818 0.000000
C253  C     C_R   0.511167 0.337242 0.727070 0.000000
C254  C     C_R   0.558812 0.350055 0.764847 0.000000
N39   N     N_R   0.580031 0.325874 0.783465 0.000000
C255  C     C_R   0.620624 0.353371 0.816598 0.000000
C256  C     C_R   0.656115 0.342023 0.835847 0.000000
C257  C     C_R   0.696060 0.372761 0.866472 0.000000
C258  C     C_R   0.699644 0.411853 0.872370 0.000000
C259  C     C_R   0.663569 0.422965 0.851904 0.000000
C260  C     C_R   0.623860 0.392549 0.822835 0.000000
N40   N     N_R   0.585710 0.392329 0.790260 0.000000
H153  H     H_    0.425921 0.268296 0.604235 0.000000
H154  H     H_    0.390569 0.316401 0.634891 0.000000
H155  H     H_    0.431055 0.376524 0.725832 0.000000
H156  H     H_    0.507182 0.393704 0.781087 0.000000
H157  H     H_    0.653150 0.308856 0.823035 0.000000
H158  H     H_    0.724858 0.364898 0.880544 0.000000
H159  H     H_    0.731247 0.430705 0.888136 0.000000
H160  H     H_    0.666582 0.451390 0.851920 0.000000
Br21  Br    Br    0.668427 0.024067 0.208114 0.000000
C261  C     C_R   0.618161 0.035014 0.174916 0.000000
C262  C     C_R   0.591544 0.006348 0.122741 0.000000
C263  C     C_R   0.551069 0.007646 0.096626 0.000000
C264  C     C_R   0.536940 0.036787 0.123211 0.000000
C265  C     C_R   0.564553 0.067418 0.175151 0.000000
C266  C     C_R   0.605950 0.067652 0.201487 0.000000
C267  C     C_R   0.631915 0.097347 0.257443 0.000000
N41   N     N_R   0.648872 0.081916 0.288313 0.000000
C268  C     C_R   0.661167 0.117532 0.333256 0.000000
C269  C     C_R   0.689636 0.125256 0.379187 0.000000
C270  C     C_R   0.698862 0.164270 0.422082 0.000000
C271  C     C_R   0.675424 0.190564 0.416939 0.000000
C272  C     C_R   0.651762 0.184582 0.371075 0.000000
C273  C     C_R   0.649755 0.150307 0.330088 0.000000
N42   N     N_R   0.635570 0.141776 0.283832 0.000000
H161  H     H_    0.601625 0.981151 0.102646 0.000000
H162  H     H_    0.529493 0.984022 0.055970 0.000000
H163  H     H_    0.503770 0.035228 0.103192 0.000000
H164  H     H_    0.552840 0.089879 0.195672 0.000000
H165  H     H_    0.707073 0.103152 0.380488 0.000000
H166  H     H_    0.723635 0.175455 0.460172 0.000000
H167  H     H_    0.680818 0.219834 0.449983 0.000000
H168  H     H_    0.639313 0.209367 0.372031 0.000000
Br22  Br    Br    0.840506 0.189971 0.360728 0.000000
C274  C     C_R   0.824152 0.237947 0.391050 0.000000
C275  C     C_R   0.852275 0.266777 0.442919 0.000000
C276  C     C_R   0.842210 0.300921 0.469456 0.000000
C277  C     C_R   0.805363 0.307740 0.443463 0.000000
C278  C     C_R   0.777360 0.279552 0.391701 0.000000
C279  C     C_R   0.785181 0.243376 0.365037 0.000000
C280  C     C_R   0.753928 0.214811 0.309758 0.000000
N43   N     N_R   0.767520 0.195018 0.276993 0.000000
C281  C     C_R   0.729176 0.168652 0.232865 0.000000
C282  C     C_R   0.723080 0.137654 0.188641 0.000000
C283  C     C_R   0.681601 0.112000 0.146552 0.000000
C284  C     C_R   0.647618 0.112858 0.152077 0.000000
C285  C     C_R   0.654527 0.143000 0.198525 0.000000
C286  C     C_R   0.695373 0.172481 0.237660 0.000000
N44   N     N_R   0.708453 0.202264 0.285743 0.000000
H169  H     H_    0.881655 0.261505 0.462921 0.000000
H170  H     H_    0.863292 0.322342 0.510262 0.000000
H171  H     H_    0.797210 0.334462 0.463259 0.000000
H172  H     H_    0.749168 0.286293 0.371797 0.000000
H173  H     H_    0.750797 0.130885 0.189707 0.000000
H174  H     H_    0.676214 0.087432 0.110498 0.000000
H175  H     H_    0.616226 0.088528 0.120556 0.000000
H176  H     H_    0.628662 0.141965 0.203730 0.000000
Br23  Br    Br    0.670343 0.651804 0.983046 0.000000
C287  C     C_R   0.713041 0.666423 0.047870 0.000000
C288  C     C_R   0.704747 0.647038 0.067836 0.000000
C289  C     C_R   0.736566 0.658345 0.115281 0.000000
C290  C     C_R   0.775768 0.689072 0.142060 0.000000
C291  C     C_R   0.783430 0.709270 0.122741 0.000000
C292  C     C_R   0.751996 0.698031 0.075786 0.000000
C293  C     C_R   0.758151 0.720152 0.055345 0.000000
N45   N     N_R   0.756661 0.696878 0.010780 0.000000
C294  C     C_R   0.749251 0.724102 0.995724 0.000000
C295  C     C_R   0.743453 0.718099 0.952452 0.000000
C296  C     C_R   0.737272 0.750708 0.945082 0.000000
C297  C     C_R   0.737804 0.789190 0.980980 0.000000
C298  C     C_R   0.743507 0.795016 0.024019 0.000000
C299  C     C_R   0.748027 0.761694 0.030346 0.000000
N46   N     N_R   0.754231 0.761235 0.069994 0.000000
H177  H     H_    0.673112 0.624620 0.047537 0.000000
H178  H     H_    0.730814 0.643312 0.131606 0.000000
H179  H     H_    0.800089 0.698422 0.178850 0.000000
H180  H     H_    0.813292 0.734593 0.144662 0.000000
H181  H     H_    0.744162 0.689100 0.924493 0.000000
H182  H     H_    0.733102 0.746529 0.911643 0.000000
H183  H     H_    0.734594 0.815198 0.975828 0.000000
H184  H     H_    0.747370 0.826258 0.053132 0.000000
Br24  Br    Br    0.830076 0.832851 0.128390 0.000000
C300  C     C_R   0.881830 0.829030 0.165457 0.000000
C301  C     C_R   0.910401 0.837044 0.154636 0.000000
C302  C     C_R   0.953640 0.850891 0.188997 0.000000
C303  C     C_R   0.967585 0.853255 0.232302 0.000000
C304  C     C_R   0.938828 0.840668 0.240684 0.000000
C305  C     C_R   0.894670 0.829097 0.208051 0.000000
C306  C     C_R   0.866472 0.820646 0.224042 0.000000
N47   N     N_R   0.821289 0.815202 0.202223 0.000000
C307  C     C_R   0.814913 0.803211 0.228580 0.000000
C308  C     C_R   0.777582 0.792748 0.224362 0.000000
C309  C     C_R   0.773512 0.766540 0.239656 0.000000
C310  C     C_R   0.807944 0.755107 0.262535 0.000000
C311  C     C_R   0.848040 0.774464 0.276585 0.000000
C312  C     C_R   0.850908 0.799453 0.260276 0.000000
N48   N     N_R   0.885611 0.814649 0.263527 0.000000
H185  H     H_    0.898689 0.837217 0.121380 0.000000
H186  H     H_    0.976386 0.859687 0.182115 0.000000
H187  H     H_    0.001590 0.862474 0.258088 0.000000
H188  H     H_    0.951998 0.842303 0.274796 0.000000
H189  H     H_    0.751931 0.802970 0.207235 0.000000
H190  H     H_    0.743412 0.753204 0.232583 0.000000
H191  H     H_    0.803721 0.732414 0.271335 0.000000
H192  H     H_    0.875675 0.767597 0.296699 0.000000
Br25  Br    Br    0.893292 0.917714 0.270337 0.000000
C313  C     C_R   0.885844 0.931216 0.224894 0.000000
C314  C     C_R   0.915525 0.934285 0.213577 0.000000
C315  C     C_R   0.906637 0.942085 0.177622 0.000000
C316  C     C_R   0.867180 0.945422 0.151731 0.000000
C317  C     C_R   0.836824 0.940069 0.161413 0.000000
C318  C     C_R   0.846250 0.932212 0.197803 0.000000
C319  C     C_R   0.813554 0.924468 0.206577 0.000000
N49   N     N_R   0.779245 0.884445 0.166469 0.000000
C320  C     C_R   0.747887 0.899014 0.147437 0.000000
C321  C     C_R   0.711919 0.875491 0.099306 0.000000
C322  C     C_R   0.687359 0.897279 0.082370 0.000000
C323  C     C_R   0.697351 0.941332 0.115519 0.000000
C324  C     C_R   0.734219 0.964983 0.164973 0.000000
C325  C     C_R   0.759705 0.943213 0.179379 0.000000
N50   N     N_R   0.800150 0.960523 0.220911 0.000000
H193  H     H_    0.944815 0.928235 0.230713 0.000000
H194  H     H_    0.930093 0.944414 0.168896 0.000000
H195  H     H_    0.859547 0.950914 0.122840 0.000000
H196  H     H_    0.805438 0.941206 0.139343 0.000000
H197  H     H_    0.704322 0.841282 0.074959 0.000000
H198  H     H_    0.658927 0.879742 0.044105 0.000000
H199  H     H_    0.673424 0.955365 0.103283 0.000000
H200  H     H_    0.741544 0.998174 0.193210 0.000000
Br26  Br    Br    0.726730 0.240931 0.631513 0.000000
C326  C     C_R   0.742537 0.297413 0.688308 0.000000
C327  C     C_R   0.785298 0.321749 0.723337 0.000000
C328  C     C_R   0.797343 0.364823 0.761401 0.000000
C329  C     C_R   0.766627 0.382904 0.764080 0.000000
C330  C     C_R   0.724190 0.358922 0.728808 0.000000
C331  C     C_R   0.712167 0.316226 0.691634 0.000000
C332  C     C_R   0.667591 0.294055 0.651614 0.000000
N51   N     N_R   0.644558 0.314178 0.628726 0.000000
C333  C     C_R   0.608012 0.280217 0.588836 0.000000
C334  C     C_R   0.571769 0.281382 0.554165 0.000000
C335  C     C_R   0.535448 0.244362 0.518475 0.000000
C336  C     C_R   0.536067 0.207506 0.518634 0.000000
C337  C     C_R   0.573116 0.206898 0.554014 0.000000
C338  C     C_R   0.608664 0.243563 0.589248 0.000000
N52   N     N_R   0.645340 0.250897 0.630453 0.000000
H201  H     H_    0.808325 0.307427 0.717520 0.000000
H202  H     H_    0.829968 0.386299 0.785349 0.000000
H203  H     H_    0.774796 0.416845 0.789717 0.000000
H204  H     H_    0.700750 0.374938 0.727764 0.000000
H205  H     H_    0.571169 0.311058 0.556257 0.000000
H206  H     H_    0.506037 0.244516 0.491113 0.000000
H207  H     H_    0.507023 0.179374 0.491479 0.000000
H208  H     H_    0.574152 0.179045 0.555048 0.000000
Br27  Br    Br    0.619812 0.519420 0.705085 0.000000
C339  C     C_R   0.669002 0.524519 0.700672 0.000000
C340  C     C_R   0.667451 0.554749 0.689610 0.000000
C341  C     C_R   0.696076 0.566939 0.682138 0.000000
C342  C     C_R   0.724100 0.545042 0.680158 0.000000
C343  C     C_R   0.728528 0.516937 0.693334 0.000000
C344  C     C_R   0.703817 0.506573 0.706945 0.000000
C345  C     C_R   0.722703 0.479887 0.726971 0.000000
N53   N     N_R   0.768241 0.494629 0.759477 0.000000
C346  C     C_R   0.776557 0.457051 0.739968 0.000000
C347  C     C_R   0.815939 0.451540 0.753146 0.000000
C348  C     C_R   0.816970 0.411885 0.720919 0.000000
C349  C     C_R   0.778836 0.377869 0.678649 0.000000
C350  C     C_R   0.739655 0.382654 0.670247 0.000000
C351  C     C_R   0.739664 0.422469 0.702166 0.000000
N54   N     N_R   0.704792 0.434067 0.696046 0.000000
H209  H     H_    0.643034 0.569945 0.688027 0.000000
H210  H     H_    0.695884 0.593035 0.677317 0.000000
H211  H     H_    0.746621 0.552143 0.673243 0.000000
H212  H     H_    0.754511 0.504762 0.695330 0.000000
H213  H     H_    0.845396 0.477935 0.786173 0.000000
H214  H     H_    0.847525 0.407072 0.728965 0.000000
H215  H     H_    0.779875 0.346928 0.653815 0.000000
H216  H     H_    0.709785 0.356142 0.639397 0.000000
Br28  Br    Br    0.523699 0.321245 0.611229 0.000000
C352  C     C_R   0.577183 0.329313 0.666096 0.000000
C353  C     C_R   0.584347 0.293020 0.663427 0.000000
C354  C     C_R   0.618968 0.296666 0.703535 0.000000
C355  C     C_R   0.648757 0.335812 0.744578 0.000000
C356  C     C_R   0.644054 0.371866 0.746354 0.000000
C357  C     C_R   0.608511 0.369235 0.707786 0.000000
C358  C     C_R   0.607160 0.406126 0.705709 0.000000
N55   N     N_R   0.604075 0.400653 0.664025 0.000000
C359  C     C_R   0.571396 0.415448 0.647960 0.000000
C360  C     C_R   0.541759 0.401359 0.598514 0.000000
C361  C     C_R   0.508987 0.418740 0.588847 0.000000
C362  C     C_R   0.505503 0.448280 0.628079 0.000000
C363  C     C_R   0.531501 0.456772 0.675844 0.000000
C364  C     C_R   0.562503 0.436978 0.684024 0.000000
N56   N     N_R   0.584496 0.431211 0.721818 0.000000
H217  H     H_    0.562856 0.261261 0.629342 0.000000
H218  H     H_    0.625162 0.269063 0.701752 0.000000
H219  H     H_    0.676554 0.338338 0.775170 0.000000
H220  H     H_    0.668953 0.401655 0.778839 0.000000
H221  H     H_    0.543778 0.377092 0.567790 0.000000
H222  H     H_    0.486268 0.409542 0.550675 0.000000
H223  H     H_    0.479987 0.462067 0.620358 0.000000
H224  H     H_    0.524127 0.475606 0.703161 0.000000
Br29  Br    Br    0.930950 0.635769 0.801988 0.000000
C365  C     C_R   0.921736 0.579018 0.787853 0.000000
C366  C     C_R   0.957107 0.568998 0.811813 0.000000
C367  C     C_R   0.951669 0.530238 0.806980 0.000000
C368  C     C_R   0.910980 0.500681 0.776696 0.000000
C369  C     C_R   0.875726 0.510523 0.752308 0.000000
C370  C     C_R   0.880556 0.549860 0.759004 0.000000
C371  C     C_R   0.842909 0.563758 0.745657 0.000000
N57   N     N_R   0.828363 0.577104 0.777549 0.000000
C372  C     C_R   0.812642 0.607590 0.772681 0.000000
C373  C     C_R   0.789888 0.628866 0.791561 0.000000
C374  C     C_R   0.775880 0.658781 0.781837 0.000000
C375  C     C_R   0.782327 0.664825 0.750715 0.000000
C376  C     C_R   0.801549 0.640005 0.727961 0.000000
C377  C     C_R   0.816523 0.611400 0.739207 0.000000
N58   N     N_R   0.832218 0.581371 0.717483 0.000000
H225  H     H_    0.989017 0.592766 0.837207 0.000000
H226  H     H_    0.979093 0.523037 0.827083 0.000000
H227  H     H_    0.906930 0.469707 0.771714 0.000000
H228  H     H_    0.843755 0.487204 0.725941 0.000000
H229  H     H_    0.781456 0.621289 0.811600 0.000000
H230  H     H_    0.758500 0.676353 0.797091 0.000000
H231  H     H_    0.770451 0.687568 0.742282 0.000000
H232  H     H_    0.804117 0.642979 0.701815 0.000000
Br30  Br    Br    0.859891 0.573884 0.576895 0.000000
C378  C     C_R   0.912103 0.619367 0.635626 0.000000
C379  C     C_R   0.934182 0.653855 0.642805 0.000000
C380  C     C_R   0.969559 0.686385 0.691084 0.000000
C381  C     C_R   0.981137 0.684399 0.731506 0.000000
C382  C     C_R   0.961078 0.647130 0.721951 0.000000
C383  C     C_R   0.929208 0.613937 0.672712 0.000000
C384  C     C_R   0.919210 0.569679 0.655086 0.000000
N59   N     N_R   0.886032 0.549404 0.653201 0.000000
C385  C     C_R   0.901588 0.519096 0.658882 0.000000
C386  C     C_R   0.886141 0.492196 0.666572 0.000000
C387  C     C_R   0.910670 0.468075 0.679273 0.000000
C388  C     C_R   0.949840 0.471384 0.684151 0.000000
C389  C     C_R   0.964137 0.497244 0.673837 0.000000
C390  C     C_R   0.939335 0.520245 0.660781 0.000000
N60   N     N_R   0.949836 0.549343 0.653336 0.000000
H233  H     H_    0.925322 0.652608 0.609835 0.000000
H234  H     H_    0.989239 0.713310 0.698279 0.000000
H235  H     H_    0.007972 0.710079 0.769416 0.000000
H236  H     H_    0.971619 0.643288 0.752363 0.000000
H237  H     H_    0.856145 0.490845 0.663715 0.000000
H238  H     H_    0.899436 0.446397 0.685749 0.000000
H239  H     H_    0.968428 0.452564 0.694519 0.000000
H240  H     H_    0.993629 0.499493 0.675428 0.000000
Br31  Br    Br    0.911889 0.453604 0.551064 0.000000
C391  C     C_R   0.948697 0.423812 0.571538 0.000000
C392  C     C_R   0.937850 0.395946 0.581682 0.000000
C393  C     C_R   0.961975 0.370403 0.589430 0.000000
C394  C     C_R   0.998260 0.373897 0.589043 0.000000
C395  C     C_R   0.010903 0.403814 0.582568 0.000000
C396  C     C_R   0.986000 0.428549 0.573516 0.000000
C397  C     C_R   0.998335 0.456738 0.562104 0.000000
N61   N     N_R   0.012814 0.441892 0.530145 0.000000
C398  C     C_R   0.037596 0.480061 0.546473 0.000000
C399  C     C_R   0.064511 0.486594 0.533122 0.000000
C400  C     C_R   0.088705 0.528436 0.556109 0.000000
C401  C     C_R   0.090181 0.562771 0.596783 0.000000
C402  C     C_R   0.064719 0.555587 0.611801 0.000000
C403  C     C_R   0.036350 0.514536 0.583592 0.000000
N62   N     N_R   0.009250 0.502007 0.592556 0.000000
H241  H     H_    0.910955 0.394004 0.584498 0.000000
H242  H     H_    0.952789 0.348200 0.596579 0.000000
H243  H     H_    0.017658 0.354324 0.595751 0.000000
H244  H     H_    0.040569 0.407827 0.584639 0.000000
H245  H     H_    0.071462 0.460308 0.510697 0.000000
H246  H     H_    0.109426 0.533958 0.545229 0.000000
H247  H     H_    0.110512 0.595343 0.616109 0.000000
H248  H     H_    0.067436 0.581770 0.644909 0.000000
Br32  Br    Br    0.759427 0.513373 0.960037 0.000000
C404  C     C_R   0.708272 0.507583 0.956886 0.000000
C405  C     C_R   0.704249 0.492922 0.983131 0.000000
C406  C     C_R   0.680290 0.506840 0.003110 0.000000
C407  C     C_R   0.660459 0.535326 0.996382 0.000000
C408  C     C_R   0.662349 0.546819 0.966712 0.000000
C409  C     C_R   0.682306 0.529278 0.941970 0.000000
C410  C     C_R   0.676543 0.536599 0.903278 0.000000
N63   N     N_R   0.699855 0.577152 0.918552 0.000000
C411  C     C_R   0.670049 0.578975 0.880141 0.000000
C412  C     C_R   0.669879 0.614921 0.879580 0.000000
C413  C     C_R   0.634159 0.613259 0.840623 0.000000
C414  C     C_R   0.598580 0.575503 0.803141 0.000000
C415  C     C_R   0.598688 0.539748 0.805161 0.000000
C416  C     C_R   0.634655 0.541932 0.843249 0.000000
N64   N     N_R   0.637167 0.512095 0.853519 0.000000
H249  H     H_    0.722075 0.472818 0.991019 0.000000
H250  H     H_    0.678781 0.497169 0.025881 0.000000
H251  H     H_    0.642680 0.547953 0.013387 0.000000
H252  H     H_    0.646363 0.568377 0.960955 0.000000
H253  H     H_    0.695836 0.644170 0.910857 0.000000
H254  H     H_    0.633493 0.641911 0.840373 0.000000
H255  H     H_    0.569994 0.574720 0.773817 0.000000
H256  H     H_    0.570235 0.512183 0.780855 0.000000
Br33  Br    Br    0.424868 0.400088 0.974959 0.000000
C417  C     C_R   0.465198 0.423291 0.042208 0.000000
C418  C     C_R   0.499024 0.455635 0.059406 0.000000
C419  C     C_R   0.512574 0.496581 0.100899 0.000000
C420  C     C_R   0.495989 0.503084 0.128857 0.000000
C421  C     C_R   0.468890 0.468113 0.117341 0.000000
C422  C     C_R   0.452762 0.426299 0.073566 0.000000
C423  C     C_R   0.425886 0.390461 0.067747 0.000000
N65   N     N_R   0.416939 0.405357 0.104792 0.000000
C424  C     C_R   0.403403 0.369204 0.099553 0.000000
C425  C     C_R   0.398899 0.367025 0.133365 0.000000
C426  C     C_R   0.386367 0.327029 0.123935 0.000000
C427  C     C_R   0.381757 0.290439 0.082394 0.000000
C428  C     C_R   0.390788 0.294850 0.051996 0.000000
C429  C     C_R   0.401567 0.334161 0.060877 0.000000
N66   N     N_R   0.415542 0.343798 0.037812 0.000000
H257  H     H_    0.508792 0.450752 0.034399 0.000000
H258  H     H_    0.535706 0.523236 0.111246 0.000000
H259  H     H_    0.508034 0.535196 0.162654 0.000000
H260  H     H_    0.462555 0.474370 0.145094 0.000000
H261  H     H_    0.408041 0.396263 0.168046 0.000000
H262  H     H_    0.381949 0.324556 0.149877 0.000000
H263  H     H_    0.372407 0.258815 0.074671 0.000000
H264  H     H_    0.388625 0.268690 0.020969 0.000000
Br34  Br    Br    0.303336 0.523467 0.098837 0.000000
C430  C     C_R   0.288409 0.464212 0.053456 0.000000
C431  C     C_R   0.279246 0.455618 0.008670 0.000000
C432  C     C_R   0.307161 0.442255 0.995119 0.000000
C433  C     C_R   0.348081 0.451035 0.032857 0.000000
C434  C     C_R   0.352994 0.453149 0.073136 0.000000
C435  C     C_R   0.317438 0.447939 0.074192 0.000000
C436  C     C_R   0.314147 0.432465 0.102547 0.000000
N67   N     N_R   0.351112 0.435789 0.142534 0.000000
C437  C     C_R   0.333168 0.414780 0.154477 0.000000
C438  C     C_R   0.353164 0.407182 0.191741 0.000000
C439  C     C_R   0.328229 0.382159 0.194541 0.000000
C440  C     C_R   0.283887 0.364829 0.160631 0.000000
C441  C     C_R   0.264081 0.372843 0.123952 0.000000
C442  C     C_R   0.288810 0.398409 0.121921 0.000000
N68   N     N_R   0.274615 0.408935 0.088192 0.000000
H265  H     H_    0.253876 0.464377 0.987722 0.000000
H266  H     H_    0.299542 0.431808 0.958160 0.000000
H267  H     H_    0.373658 0.448011 0.027086 0.000000
H268  H     H_    0.382240 0.452944 0.097790 0.000000
H269  H     H_    0.387372 0.418811 0.218076 0.000000
H270  H     H_    0.343617 0.375765 0.223245 0.000000
H271  H     H_    0.264649 0.345293 0.163134 0.000000
H272  H     H_    0.229761 0.361031 0.099135 0.000000
Br35  Br    Br    0.500754 0.367138 0.140471 0.000000
C443  C     C_R   0.526373 0.426193 0.170333 0.000000
C444  C     C_R   0.545063 0.433360 0.149060 0.000000
C445  C     C_R   0.570952 0.474060 0.171541 0.000000
C446  C     C_R   0.580251 0.507740 0.217629 0.000000
C447  C     C_R   0.562813 0.500307 0.239974 0.000000
C448  C     C_R   0.533262 0.460515 0.215326 0.000000
C449  C     C_R   0.513510 0.457280 0.240752 0.000000
N69   N     N_R   0.473116 0.462596 0.229292 0.000000
C450  C     C_R   0.477054 0.477960 0.273535 0.000000
C451  C     C_R   0.448067 0.491764 0.285304 0.000000
C452  C     C_R   0.459557 0.509932 0.334443 0.000000
C453  C     C_R   0.500228 0.515605 0.371273 0.000000
C454  C     C_R   0.529471 0.502292 0.359084 0.000000
C455  C     C_R   0.516695 0.482153 0.309275 0.000000
N70   N     N_R   0.540609 0.467680 0.289703 0.000000
H273  H     H_    0.540222 0.405871 0.115194 0.000000
H274  H     H_    0.585800 0.478942 0.154457 0.000000
H275  H     H_    0.602168 0.539439 0.236742 0.000000
H276  H     H_    0.571737 0.526534 0.276918 0.000000
H277  H     H_    0.417505 0.489816 0.257389 0.000000
H278  H     H_    0.437203 0.521114 0.344582 0.000000
H279  H     H_    0.509277 0.530854 0.409861 0.000000
H280  H     H_    0.561386 0.507381 0.388057 0.000000
Br36  Br    Br    0.452660 0.580004 0.296953 0.000000
C456  C     C_R   0.393672 0.560749 0.244199 0.000000
C457  C     C_R   0.368999 0.568554 0.264050 0.000000
C458  C     C_R   0.346877 0.596918 0.262051 0.000000
C459  C     C_R   0.348112 0.615186 0.237974 0.000000
C460  C     C_R   0.366738 0.600805 0.210989 0.000000
C461  C     C_R   0.383997 0.568057 0.207171 0.000000
C462  C     C_R   0.402440 0.553105 0.175564 0.000000
N71   N     N_R   0.426406 0.525590 0.180001 0.000000
C463  C     C_R   0.465902 0.553363 0.205249 0.000000
C464  C     C_R   0.501545 0.553776 0.241498 0.000000
C465  C     C_R   0.532858 0.592456 0.283869 0.000000
C466  C     C_R   0.528905 0.630545 0.288748 0.000000
C467  C     C_R   0.495054 0.629560 0.249293 0.000000
C468  C     C_R   0.463823 0.590337 0.206455 0.000000
N72   N     N_R   0.422584 0.586729 0.177975 0.000000
H281  H     H_    0.375255 0.561361 0.291351 0.000000
H282  H     H_    0.331749 0.607458 0.282740 0.000000
H283  H     H_    0.333684 0.640041 0.239264 0.000000
H284  H     H_    0.367579 0.615136 0.192512 0.000000
H285  H     H_    0.500369 0.526932 0.243418 0.000000
H286  H     H_    0.556128 0.592598 0.315833 0.000000
H287  H     H_    0.550433 0.661244 0.324894 0.000000
H288  H     H_    0.489534 0.659384 0.256460 0.000000
Br37  Br    Br    0.489831 0.239526 0.877226 0.000000
C469  C     C_R   0.436979 0.199523 0.846069 0.000000
C470  C     C_R   0.435305 0.156867 0.824688 0.000000
C471  C     C_R   0.404896 0.127476 0.815860 0.000000
C472  C     C_R   0.377735 0.141829 0.830552 0.000000
C473  C     C_R   0.376910 0.183827 0.847439 0.000000
C474  C     C_R   0.404685 0.212588 0.852176 0.000000
C475  C     C_R   0.408450 0.259039 0.878811 0.000000
N73   N     N_R   0.421552 0.280336 0.929520 0.000000
C476  C     C_R   0.452857 0.315979 0.952195 0.000000
C477  C     C_R   0.486210 0.340808 0.002608 0.000000
C478  C     C_R   0.521345 0.370089 0.017088 0.000000
C479  C     C_R   0.522739 0.371942 0.981074 0.000000
C480  C     C_R   0.489736 0.343558 0.930336 0.000000
C481  C     C_R   0.454099 0.318953 0.917224 0.000000
N74   N     N_R   0.423820 0.285835 0.869158 0.000000
H289  H     H_    0.460482 0.147552 0.819351 0.000000
H290  H     H_    0.404854 0.094487 0.801844 0.000000
H291  H     H_    0.356865 0.119305 0.828052 0.000000
H292  H     H_    0.355473 0.195109 0.858631 0.000000
H293  H     H_    0.485984 0.336316 0.029513 0.000000
H294  H     H_    0.549191 0.389964 0.055739 0.000000
H295  H     H_    0.551282 0.393455 0.992805 0.000000
H296  H     H_    0.491767 0.335571 0.899202 0.000000
Br38  Br    Br    0.569225 0.302447 0.027618 0.000000
C482  C     C_R   0.537251 0.243522 0.989247 0.000000
C483  C     C_R   0.544785 0.212947 0.954716 0.000000
C484  C     C_R   0.521261 0.169573 0.924715 0.000000
C485  C     C_R   0.489402 0.156657 0.928550 0.000000
C486  C     C_R   0.481652 0.187027 0.962658 0.000000
C487  C     C_R   0.505738 0.231095 0.994101 0.000000
C488  C     C_R   0.502915 0.259912 0.037919 0.000000
N75   N     N_R   0.524921 0.252516 0.075656 0.000000
C489  C     C_R   0.491393 0.229939 0.069161 0.000000
C490  C     C_R   0.490789 0.196845 0.075558 0.000000
C491  C     C_R   0.453054 0.172325 0.061429 0.000000
C492  C     C_R   0.415526 0.179702 0.038609 0.000000
C493  C     C_R   0.415262 0.209190 0.026640 0.000000
C494  C     C_R   0.453578 0.233771 0.040671 0.000000
N76   N     N_R   0.460013 0.256377 0.023055 0.000000
H297  H     H_    0.569079 0.222814 0.950580 0.000000
H298  H     H_    0.527468 0.145908 0.897889 0.000000
H299  H     H_    0.470776 0.122549 0.905332 0.000000
H300  H     H_    0.457870 0.174859 0.966015 0.000000
H301  H     H_    0.519143 0.190247 0.092485 0.000000
H302  H     H_    0.452942 0.147418 0.068248 0.000000
H303  H     H_    0.385563 0.160246 0.026859 0.000000
H304  H     H_    0.383988 0.208889 0.003937 0.000000
Br39  Br    Br    0.299801 0.308525 0.006519 0.000000
C495  C     C_R   0.309383 0.311511 0.961616 0.000000
C496  C     C_R   0.316961 0.350359 0.969084 0.000000
C497  C     C_R   0.333513 0.357078 0.945738 0.000000
C498  C     C_R   0.343349 0.324670 0.916501 0.000000
C499  C     C_R   0.328997 0.284300 0.902541 0.000000
C500  C     C_R   0.311028 0.277819 0.924046 0.000000
C501  C     C_R   0.308389 0.238265 0.917484 0.000000
N77   N     N_R   0.345927 0.228859 0.933028 0.000000
C502  C     C_R   0.329875 0.185854 0.911386 0.000000
C503  C     C_R   0.351816 0.156961 0.910596 0.000000
C504  C     C_R   0.328807 0.114764 0.888469 0.000000
C505  C     C_R   0.284525 0.101932 0.866179 0.000000
C506  C     C_R   0.262232 0.130385 0.862997 0.000000
C507  C     C_R   0.285473 0.171772 0.884913 0.000000
N78   N     N_R   0.270143 0.203724 0.884440 0.000000
H305  H     H_    0.309280 0.373821 0.993367 0.000000
H306  H     H_    0.339410 0.387198 0.949735 0.000000
H307  H     H_    0.356992 0.328554 0.898297 0.000000
H308  H     H_    0.332686 0.257631 0.875358 0.000000
H309  H     H_    0.386009 0.166917 0.927220 0.000000
H310  H     H_    0.345512 0.091706 0.888898 0.000000
H311  H     H_    0.267451 0.069246 0.850558 0.000000
H312  H     H_    0.228093 0.121455 0.845994 0.000000
Br40  Br    Br    0.131036 0.372142 0.848761 0.000000
C508  C     C_R   0.110112 0.391882 0.889675 0.000000
C509  C     C_R   0.068536 0.364538 0.860195 0.000000
C510  C     C_R   0.049018 0.360748 0.881611 0.000000
C511  C     C_R   0.069530 0.387893 0.933040 0.000000
C512  C     C_R   0.109699 0.417358 0.962772 0.000000
C513  C     C_R   0.131546 0.421217 0.942944 0.000000
C514  C     C_R   0.176907 0.450605 0.984244 0.000000
N79   N     N_R   0.197685 0.440410 0.019837 0.000000
C515  C     C_R   0.213694 0.479459 0.063965 0.000000
C516  C     C_R   0.237132 0.489702 0.112394 0.000000
C517  C     C_R   0.250624 0.532069 0.153071 0.000000
C518  C     C_R   0.242502 0.564250 0.145092 0.000000
C519  C     C_R   0.220507 0.553536 0.096169 0.000000
C520  C     C_R   0.207143 0.511275 0.056436 0.000000
N80   N     N_R   0.187603 0.496318 0.007367 0.000000
H313  H     H_    0.053538 0.341324 0.819828 0.000000
H314  H     H_    0.019315 0.334118 0.858141 0.000000
H315  H     H_    0.055074 0.384754 0.950917 0.000000
H316  H     H_    0.125721 0.435263 0.003194 0.000000
H317  H     H_    0.248120 0.466696 0.119462 0.000000
H318  H     H_    0.267459 0.539761 0.190941 0.000000
H319  H     H_    0.252526 0.597357 0.176725 0.000000
H320  H     H_    0.212859 0.577321 0.089012 0.000000
Br41  Br    Br    0.165678 0.290147 0.013879 0.000000
C521  C     C_R   0.203730 0.261789 0.004913 0.000000
C522  C     C_R   0.218935 0.242649 0.030705 0.000000
C523  C     C_R   0.239243 0.213099 0.018261 0.000000
C524  C     C_R   0.242187 0.201052 0.978000 0.000000
C525  C     C_R   0.227028 0.220335 0.952496 0.000000
C526  C     C_R   0.209756 0.253112 0.967245 0.000000
C527  C     C_R   0.199684 0.276397 0.941663 0.000000
N81   N     N_R   0.201271 0.258707 0.898374 0.000000
C528  C     C_R   0.206644 0.293360 0.898174 0.000000
C529  C     C_R   0.220861 0.297319 0.872969 0.000000
C530  C     C_R   0.222436 0.333727 0.873597 0.000000
C531  C     C_R   0.219813 0.368859 0.908273 0.000000
C532  C     C_R   0.213591 0.366430 0.940915 0.000000
C533  C     C_R   0.205668 0.328101 0.934367 0.000000
N82   N     N_R   0.200983 0.320748 0.964289 0.000000
H321  H     H_    0.213343 0.249764 0.059683 0.000000
H322  H     H_    0.250789 0.197895 0.038257 0.000000
H323  H     H_    0.256368 0.176399 0.966191 0.000000
H324  H     H_    0.229225 0.209328 0.920761 0.000000
H325  H     H_    0.230137 0.271673 0.853917 0.000000
H326  H     H_    0.226572 0.335472 0.848331 0.000000
H327  H     H_    0.223533 0.398213 0.910077 0.000000
H328  H     H_    0.216149 0.393554 0.971277 0.000000
Br42  Br    Br    0.108165 0.306830 0.896799 0.000000
C534  C     C_R   0.070928 0.293649 0.912496 0.000000
C535  C     C_R   0.038080 0.254681 0.874026 0.000000
C536  C     C_R   0.023546 0.229643 0.884800 0.000000
C537  C     C_R   0.043511 0.243607 0.934361 0.000000
C538  C     C_R   0.070878 0.285934 0.972564 0.000000
C539  C     C_R   0.082750 0.312665 0.961809 0.000000
C540  C     C_R   0.106059 0.359398 0.003682 0.000000
N83   N     N_R   0.151649 0.377308 0.035243 0.000000
C541  C     C_R   0.157555 0.408735 0.079569 0.000000
C542  C     C_R   0.195345 0.432542 0.126971 0.000000
C543  C     C_R   0.195508 0.465774 0.167058 0.000000
C544  C     C_R   0.157874 0.474229 0.159312 0.000000
C545  C     C_R   0.119002 0.447004 0.112718 0.000000
C546  C     C_R   0.119386 0.413364 0.073663 0.000000
N84   N     N_R   0.085114 0.382955 0.026218 0.000000
H329  H     H_    0.027579 0.241500 0.835380 0.000000
H330  H     H_    0.000459 0.197287 0.854470 0.000000
H331  H     H_    0.036165 0.222030 0.943129 0.000000
H332  H     H_    0.084657 0.297941 0.011773 0.000000
H333  H     H_    0.224796 0.426736 0.133759 0.000000
H334  H     H_    0.225459 0.486296 0.204140 0.000000
H335  H     H_    0.159403 0.502584 0.190105 0.000000
H336  H     H_    0.089930 0.454107 0.106489 0.000000
Br43  Br    Br    0.488343 0.342606 0.207501 0.000000
C547  C     C_R   0.541707 0.342593 0.253447 0.000000
C548  C     C_R   0.539685 0.326707 0.279005 0.000000
C549  C     C_R   0.573088 0.315234 0.302279 0.000000
C550  C     C_R   0.609835 0.321029 0.303186 0.000000
C551  C     C_R   0.612285 0.337353 0.278330 0.000000
C552  C     C_R   0.578825 0.348757 0.254371 0.000000
C553  C     C_R   0.584824 0.367771 0.231480 0.000000
N85   N     N_R   0.590291 0.345392 0.191982 0.000000
C554  C     C_R   0.603437 0.378336 0.190530 0.000000
C555  C     C_R   0.612128 0.375660 0.157091 0.000000
C556  C     C_R   0.634534 0.413715 0.168907 0.000000
C557  C     C_R   0.649070 0.453142 0.214802 0.000000
C558  C     C_R   0.636743 0.455621 0.246100 0.000000
C559  C     C_R   0.611575 0.417831 0.231175 0.000000
N86   N     N_R   0.598326 0.412566 0.257067 0.000000
H337  H     H_    0.510105 0.318917 0.276239 0.000000
H338  H     H_    0.567329 0.296731 0.313791 0.000000
H339  H     H_    0.635423 0.310177 0.319707 0.000000
H340  H     H_    0.639663 0.339251 0.275605 0.000000
H341  H     H_    0.606162 0.344419 0.126269 0.000000
H342  H     H_    0.643713 0.412243 0.144367 0.000000
H343  H     H_    0.668639 0.482304 0.225148 0.000000
H344  H     H_    0.646400 0.486224 0.280886 0.000000
Br44  Br    Br    0.679400 0.431732 0.335151 0.000000
C560  C     C_R   0.699247 0.412195 0.375126 0.000000
C561  C     C_R   0.734766 0.400390 0.378769 0.000000
C562  C     C_R   0.755635 0.387047 0.409155 0.000000
C563  C     C_R   0.738059 0.381811 0.431786 0.000000
C564  C     C_R   0.702293 0.392789 0.427051 0.000000
C565  C     C_R   0.681437 0.409138 0.399712 0.000000
C566  C     C_R   0.640336 0.417167 0.395591 0.000000
N87   N     N_R   0.612323 0.430489 0.365793 0.000000
C567  C     C_R   0.578396 0.424479 0.368579 0.000000
C568  C     C_R   0.536790 0.418213 0.335185 0.000000
C569  C     C_R   0.505450 0.413026 0.343478 0.000000
C570  C     C_R   0.517941 0.418408 0.388213 0.000000
C571  C     C_R   0.559179 0.420402 0.418228 0.000000
C572  C     C_R   0.586611 0.415277 0.402394 0.000000
N88   N     N_R   0.624466 0.407101 0.418793 0.000000
H345  H     H_    0.747100 0.403395 0.358672 0.000000
H346  H     H_    0.785177 0.380950 0.415358 0.000000
H347  H     H_    0.752154 0.369057 0.453750 0.000000
H348  H     H_    0.690812 0.387309 0.444979 0.000000
H349  H     H_    0.528086 0.414394 0.301211 0.000000
H350  H     H_    0.472609 0.408966 0.317606 0.000000
H351  H     H_    0.495987 0.421639 0.400103 0.000000
H352  H     H_    0.570817 0.434356 0.456280 0.000000
Br45  Br    Br    0.749084 0.513796 0.497362 0.000000
C573  C     C_R   0.758789 0.515050 0.452124 0.000000
C574  C     C_R   0.789228 0.497292 0.448185 0.000000
C575  C     C_R   0.796448 0.491104 0.412736 0.000000
C576  C     C_R   0.772433 0.501785 0.379668 0.000000
C577  C     C_R   0.740219 0.517452 0.381606 0.000000
C578  C     C_R   0.733913 0.525763 0.418712 0.000000
C579  C     C_R   0.702349 0.547146 0.421523 0.000000
N89   N     N_R   0.656967 0.527438 0.385405 0.000000
C580  C     C_R   0.645038 0.563080 0.403632 0.000000
C581  C     C_R   0.604714 0.566307 0.385103 0.000000
C582  C     C_R   0.598210 0.602279 0.415595 0.000000
C583  C     C_R   0.632697 0.635969 0.463308 0.000000
C584  C     C_R   0.674167 0.635522 0.478561 0.000000
C585  C     C_R   0.679463 0.599267 0.447421 0.000000
N90   N     N_R   0.716803 0.591792 0.458920 0.000000
H353  H     H_    0.807171 0.487233 0.472701 0.000000
H354  H     H_    0.821453 0.477867 0.412152 0.000000
H355  H     H_    0.777882 0.497138 0.351368 0.000000
H356  H     H_    0.719069 0.522756 0.353422 0.000000
H357  H     H_    0.579037 0.543076 0.347133 0.000000
H358  H     H_    0.566070 0.604269 0.401812 0.000000
H359  H     H_    0.627330 0.663427 0.487675 0.000000
H360  H     H_    0.701268 0.661562 0.515535 0.000000
Br46  Br    Br    0.350750 0.695349 0.111125 0.000000
C586  C     C_R   0.392067 0.711101 0.102681 0.000000
C587  C     C_R   0.395324 0.749263 0.106885 0.000000
C588  C     C_R   0.430203 0.768809 0.112604 0.000000
C589  C     C_R   0.464592 0.753990 0.122049 0.000000
C590  C     C_R   0.460537 0.715091 0.115610 0.000000
C591  C     C_R   0.422492 0.691241 0.100738 0.000000
C592  C     C_R   0.414746 0.644747 0.074595 0.000000
N91   N     N_R   0.412377 0.621561 0.094302 0.000000
C593  C     C_R   0.420664 0.586423 0.068508 0.000000
C594  C     C_R   0.425097 0.553233 0.074722 0.000000
C595  C     C_R   0.424701 0.516513 0.038323 0.000000
C596  C     C_R   0.412969 0.512136 0.994437 0.000000
C597  C     C_R   0.415935 0.548160 0.992944 0.000000
C598  C     C_R   0.424098 0.586569 0.033057 0.000000
N92   N     N_R   0.419848 0.622660 0.033902 0.000000
H361  H     H_    0.370384 0.763648 0.105442 0.000000
H362  H     H_    0.430265 0.795872 0.109731 0.000000
H363  H     H_    0.493704 0.770652 0.130118 0.000000
H364  H     H_    0.486320 0.702112 0.119089 0.000000
H365  H     H_    0.425071 0.553381 0.103983 0.000000
H366  H     H_    0.424983 0.488733 0.039688 0.000000
H367  H     H_    0.398251 0.479522 0.960689 0.000000
H368  H     H_    0.404200 0.546213 0.959051 0.000000
Br47  Br    Br    0.270013 0.616308 0.001984 0.000000
C599  C     C_R   0.270672 0.561335 0.990971 0.000000
C600  C     C_R   0.260112 0.526373 0.945192 0.000000
C601  C     C_R   0.281657 0.497539 0.943829 0.000000
C602  C     C_R   0.320094 0.511046 0.987662 0.000000
C603  C     C_R   0.326696 0.541774 0.033431 0.000000
C604  C     C_R   0.297759 0.562987 0.032999 0.000000
C605  C     C_R   0.298928 0.593682 0.076946 0.000000
N93   N     N_R   0.260800 0.600886 0.071565 0.000000
C606  C     C_R   0.277910 0.639818 0.116675 0.000000
C607  C     C_R   0.260354 0.672072 0.126688 0.000000
C608  C     C_R   0.282582 0.709451 0.175552 0.000000
C609  C     C_R   0.323415 0.715196 0.211930 0.000000
C610  C     C_R   0.344853 0.687226 0.197614 0.000000
C611  C     C_R   0.321685 0.650604 0.148745 0.000000
N94   N     N_R   0.337314 0.623359 0.124137 0.000000
H369  H     H_    0.240895 0.525426 0.911784 0.000000
H370  H     H_    0.273154 0.468974 0.908151 0.000000
H371  H     H_    0.341654 0.493234 0.985452 0.000000
H372  H     H_    0.352430 0.547468 0.068429 0.000000
H373  H     H_    0.229977 0.668267 0.097386 0.000000
H374  H     H_    0.267910 0.734061 0.185546 0.000000
H375  H     H_    0.339168 0.743142 0.250589 0.000000
H376  H     H_    0.378254 0.693376 0.223897 0.000000
Br48  Br    Br    0.505577 0.734642 0.350851 0.000000
C612  C     C_R   0.466457 0.760042 0.324181 0.000000
C613  C     C_R   0.447626 0.782045 0.349123 0.000000
C614  C     C_R   0.421350 0.803275 0.333023 0.000000
C615  C     C_R   0.411495 0.799972 0.289787 0.000000
C616  C     C_R   0.427698 0.775216 0.262685 0.000000
C617  C     C_R   0.457158 0.757411 0.281244 0.000000
C618  C     C_R   0.477605 0.735959 0.254690 0.000000
N95   N     N_R   0.518465 0.757039 0.269839 0.000000
C619  C     C_R   0.521641 0.725452 0.233191 0.000000
C620  C     C_R   0.558329 0.725536 0.234550 0.000000
C621  C     C_R   0.561734 0.688798 0.201455 0.000000
C622  C     C_R   0.529415 0.650030 0.172238 0.000000
C623  C     C_R   0.494647 0.650013 0.176211 0.000000
C624  C     C_R   0.488506 0.688180 0.202010 0.000000
N96   N     N_R   0.457628 0.692796 0.211598 0.000000
H377  H     H_    0.454836 0.784021 0.382597 0.000000
H378  H     H_    0.407732 0.821666 0.353610 0.000000
H379  H     H_    0.389802 0.815447 0.276077 0.000000
H380  H     H_    0.418420 0.770964 0.227520 0.000000
H381  H     H_    0.585683 0.751235 0.268234 0.000000
H382  H     H_    0.591840 0.689237 0.204169 0.000000
H383  H     H_    0.533405 0.619694 0.150844 0.000000
H384  H     H_    0.474488 0.620387 0.162513 0.000000
Br49  Br    Br    0.181508 0.105938 0.627449 0.000000
C625  C     C_R   0.230858 0.131368 0.691627 0.000000
C626  C     C_R   0.257511 0.106791 0.692746 0.000000
C627  C     C_R   0.281819 0.107454 0.735174 0.000000
C628  C     C_R   0.280597 0.134673 0.776520 0.000000
C629  C     C_R   0.261452 0.165670 0.778417 0.000000
C630  C     C_R   0.234322 0.163504 0.735566 0.000000
C631  C     C_R   0.206976 0.191460 0.739025 0.000000
N97   N     N_R   0.191304 0.208348 0.709523 0.000000
C632  C     C_R   0.167751 0.229684 0.726447 0.000000
C633  C     C_R   0.146535 0.255820 0.714970 0.000000
C634  C     C_R   0.126922 0.276787 0.739738 0.000000
C635  C     C_R   0.121971 0.265399 0.768193 0.000000
C636  C     C_R   0.141449 0.237485 0.777426 0.000000
C637  C     C_R   0.167905 0.224240 0.760832 0.000000
N98   N     N_R   0.195501 0.204043 0.774249 0.000000
H385  H     H_    0.253667 0.081721 0.657777 0.000000
H386  H     H_    0.298334 0.084087 0.734312 0.000000
H387  H     H_    0.295774 0.132472 0.808215 0.000000
H388  H     H_    0.265298 0.190386 0.812659 0.000000
H389  H     H_    0.142967 0.258532 0.685478 0.000000
H390  H     H_    0.110940 0.298129 0.731830 0.000000
H391  H     H_    0.102392 0.277691 0.782543 0.000000
H392  H     H_    0.138364 0.229040 0.800240 0.000000
Br50  Br    Br    0.142157 0.067853 0.809585 0.000000
C638  C     C_R   0.159871 0.055299 0.764832 0.000000
C639  C     C_R   0.184782 0.028916 0.761392 0.000000
C640  C     C_R   0.204825 0.025745 0.737168 0.000000
C641  C     C_R   0.199313 0.048462 0.715750 0.000000
C642  C     C_R   0.174767 0.075291 0.719669 0.000000
C643  C     C_R   0.153464 0.077328 0.742286 0.000000
C644  C     C_R   0.129052 0.106905 0.748913 0.000000
N99   N     N_R   0.083463 0.093130 0.721438 0.000000
C645  C     C_R   0.078511 0.127844 0.753873 0.000000
C646  C     C_R   0.041460 0.135660 0.748452 0.000000
C647  C     C_R   0.042698 0.163952 0.791608 0.000000
C648  C     C_R   0.081497 0.185082 0.838573 0.000000
C649  C     C_R   0.119061 0.183501 0.841278 0.000000
C650  C     C_R   0.116852 0.156923 0.797765 0.000000
N100  N     N_R   0.149982 0.147481 0.795167 0.000000
H393  H     H_    0.190057 0.012177 0.779577 0.000000
H394  H     H_    0.224482 0.005128 0.734480 0.000000
H395  H     H_    0.213396 0.044199 0.694713 0.000000
H396  H     H_    0.171111 0.093691 0.703773 0.000000
H397  H     H_    0.011691 0.118901 0.712688 0.000000
H398  H     H_    0.012724 0.166218 0.788303 0.000000
H399  H     H_    0.083330 0.202463 0.873548 0.000000
H400  H     H_    0.148312 0.196384 0.876660 0.000000
Br51  Br    Br    0.941840 0.254069 0.819252 0.000000
C651  C     C_R   0.911669 0.294349 0.824591 0.000000
C652  C     C_R   0.898244 0.305818 0.791125 0.000000
C653  C     C_R   0.884410 0.340882 0.800660 0.000000
C654  C     C_R   0.885871 0.365562 0.844762 0.000000
C655  C     C_R   0.899162 0.354004 0.878165 0.000000
C656  C     C_R   0.910255 0.317194 0.866835 0.000000
C657  C     C_R   0.923082 0.302628 0.899752 0.000000
N101  N     N_R   0.898034 0.261945 0.881488 0.000000
C658  C     C_R   0.926586 0.255131 0.915161 0.000000
C659  C     C_R   0.919462 0.219748 0.916246 0.000000
C660  C     C_R   0.953523 0.217407 0.952693 0.000000
C661  C     C_R   0.993264 0.250335 0.986785 0.000000
C662  C     C_R   0.998112 0.287156 0.986939 0.000000
C663  C     C_R   0.964521 0.289612 0.951856 0.000000
N102  N     N_R   0.964235 0.322523 0.946001 0.000000
H401  H     H_    0.902522 0.290158 0.760185 0.000000
H402  H     H_    0.878408 0.352436 0.777130 0.000000
H403  H     H_    0.880478 0.396047 0.855381 0.000000
H404  H     H_    0.902834 0.374802 0.913890 0.000000
H405  H     H_    0.888675 0.193795 0.888475 0.000000
H406  H     H_    0.949480 0.189412 0.953777 0.000000
H407  H     H_    0.020263 0.247910 0.014350 0.000000
H408  H     H_    0.027999 0.312448 0.011182 0.000000
Br52  Br    Br    0.012355 0.536848 0.091771 0.000000
C664  C     C_R   0.067006 0.533783 0.105923 0.000000
C665  C     C_R   0.106867 0.560786 0.150958 0.000000
C666  C     C_R   0.143787 0.556110 0.152598 0.000000
C667  C     C_R   0.140227 0.525792 0.108580 0.000000
C668  C     C_R   0.100612 0.501041 0.064072 0.000000
C669  C     C_R   0.064628 0.503302 0.064286 0.000000
C670  C     C_R   0.023447 0.479534 0.017244 0.000000
N103  N     N_R   0.009919 0.434358 0.988013 0.000000
C671  C     C_R   0.991426 0.426094 0.940989 0.000000
C672  C     C_R   0.982040 0.389110 0.897569 0.000000
C673  C     C_R   0.973504 0.390717 0.856941 0.000000
C674  C     C_R   0.969712 0.427493 0.857883 0.000000
C675  C     C_R   0.979614 0.464819 0.901892 0.000000
C676  C     C_R   0.991324 0.463210 0.942621 0.000000
N104  N     N_R   0.009441 0.497755 0.989920 0.000000
H409  H     H_    0.110041 0.587490 0.184085 0.000000
H410  H     H_    0.175193 0.576713 0.187754 0.000000
H411  H     H_    0.167731 0.520017 0.108490 0.000000
H412  H     H_    0.097039 0.480288 0.028605 0.000000
H413  H     H_    0.984492 0.360280 0.896662 0.000000
H414  H     H_    0.968461 0.362428 0.823042 0.000000
H415  H     H_    0.961950 0.427703 0.825462 0.000000
H416  H     H_    0.981985 0.495009 0.905268 0.000000
Br53  Br    Br    0.113157 0.445157 0.205245 0.000000
C677  C     C_R   0.094549 0.490334 0.200719 0.000000
C678  C     C_R   0.124844 0.530371 0.243859 0.000000
C679  C     C_R   0.117757 0.568157 0.251693 0.000000
C680  C     C_R   0.078163 0.565530 0.218155 0.000000
C681  C     C_R   0.047010 0.525714 0.177135 0.000000
C682  C     C_R   0.055195 0.487727 0.162761 0.000000
C683  C     C_R   0.016355 0.447949 0.117125 0.000000
N105  N     N_R   0.022598 0.413392 0.082723 0.000000
C684  C     C_R   0.022131 0.386494 0.097030 0.000000
C685  C     C_R   0.047777 0.360907 0.099601 0.000000
C686  C     C_R   0.051568 0.343186 0.126215 0.000000
C687  C     C_R   0.032675 0.354049 0.153290 0.000000
C688  C     C_R   0.010389 0.383103 0.154312 0.000000
C689  C     C_R   0.005975 0.399250 0.126731 0.000000
N106  N     N_R   0.995337 0.434910 0.133381 0.000000
H417  H     H_    0.154990 0.531709 0.271857 0.000000
H418  H     H_    0.142210 0.599355 0.284702 0.000000
H419  H     H_    0.071519 0.594808 0.223334 0.000000
H420  H     H_    0.014746 0.523635 0.154756 0.000000
H421  H     H_    0.069768 0.360061 0.088233 0.000000
H422  H     H_    0.071935 0.323402 0.128955 0.000000
H423  H     H_    0.037692 0.341838 0.176029 0.000000
H424  H     H_    0.999204 0.395360 0.178467 0.000000
Br54  Br    Br    0.387608 0.352187 0.855045 0.000000
C690  C     C_R   0.330284 0.333410 0.804985 0.000000
C691  C     C_R   0.314008 0.360753 0.829402 0.000000
C692  C     C_R   0.290997 0.345767 0.841242 0.000000
C693  C     C_R   0.277507 0.301950 0.820025 0.000000
C694  C     C_R   0.288549 0.274187 0.789318 0.000000
C695  C     C_R   0.309680 0.289092 0.775914 0.000000
C696  C     C_R   0.311104 0.255329 0.734362 0.000000
N107  N     N_R   0.349905 0.249339 0.740413 0.000000
C697  C     C_R   0.334219 0.209568 0.696452 0.000000
C698  C     C_R   0.355521 0.187621 0.675440 0.000000
C699  C     C_R   0.333863 0.145238 0.632814 0.000000
C700  C     C_R   0.291232 0.125283 0.611689 0.000000
C701  C     C_R   0.269310 0.149192 0.630246 0.000000
C702  C     C_R   0.290231 0.191972 0.669574 0.000000
N108  N     N_R   0.272955 0.220386 0.689921 0.000000
H425  H     H_    0.330763 0.395147 0.854954 0.000000
H426  H     H_    0.285423 0.369417 0.868563 0.000000
H427  H     H_    0.259664 0.288474 0.827884 0.000000
H428  H     H_    0.279660 0.240414 0.774128 0.000000
H429  H     H_    0.387912 0.202506 0.690015 0.000000
H430  H     H_    0.350652 0.127384 0.616742 0.000000
H431  H     H_    0.274675 0.091514 0.579650 0.000000
H432  H     H_    0.236569 0.134598 0.614654 0.000000
Br55  Br    Br    0.426768 0.279092 0.716936 0.000000
C703  C     C_R   0.373461 0.288842 0.694223 0.000000
C704  C     C_R   0.342030 0.261044 0.643405 0.000000
C705  C     C_R   0.303367 0.267379 0.624157 0.000000
C706  C     C_R   0.294356 0.298438 0.656454 0.000000
C707  C     C_R   0.326348 0.327653 0.707044 0.000000
C708  C     C_R   0.366719 0.324146 0.725545 0.000000
C709  C     C_R   0.402736 0.359461 0.776072 0.000000
N109  N     N_R   0.430654 0.351920 0.811803 0.000000
C710  C     C_R   0.461785 0.392529 0.848211 0.000000
C711  C     C_R   0.495929 0.410647 0.897234 0.000000
C712  C     C_R   0.522992 0.452911 0.927005 0.000000
C713  C     C_R   0.515470 0.478330 0.909158 0.000000
C714  C     C_R   0.479723 0.461900 0.861739 0.000000
C715  C     C_R   0.453092 0.420060 0.833407 0.000000
N110  N     N_R   0.414714 0.402288 0.790138 0.000000
H433  H     H_    0.348519 0.235479 0.618418 0.000000
H434  H     H_    0.280195 0.247937 0.583466 0.000000
H435  H     H_    0.263586 0.302876 0.641193 0.000000
H436  H     H_    0.320301 0.354502 0.731224 0.000000
H437  H     H_    0.502822 0.395150 0.915091 0.000000
H438  H     H_    0.549517 0.466810 0.965750 0.000000
H439  H     H_    0.535892 0.511983 0.933832 0.000000
H440  H     H_    0.471571 0.482763 0.849173 0.000000
Br56  Br    Br    0.575754 0.319982 0.936997 0.000000
C716  C     C_R   0.561153 0.349569 0.905684 0.000000
C717  C     C_R   0.583467 0.393471 0.938161 0.000000
C718  C     C_R   0.586962 0.415817 0.919129 0.000000
C719  C     C_R   0.562170 0.396040 0.868039 0.000000
C720  C     C_R   0.533607 0.354578 0.836503 0.000000
C721  C     C_R   0.533564 0.330163 0.853662 0.000000
C722  C     C_R   0.508693 0.283904 0.813988 0.000000
N111  N     N_R   0.524986 0.256355 0.788541 0.000000
C723  C     C_R   0.495969 0.217119 0.762393 0.000000
C724  C     C_R   0.500240 0.177366 0.738067 0.000000
C725  C     C_R   0.469126 0.140790 0.718346 0.000000
C726  C     C_R   0.435513 0.144835 0.725034 0.000000
C727  C     C_R   0.432683 0.185446 0.751449 0.000000
C728  C     C_R   0.462670 0.221281 0.768667 0.000000
N112  N     N_R   0.467447 0.263716 0.797904 0.000000
H441  H     H_    0.602841 0.409074 0.978776 0.000000
H442  H     H_    0.606390 0.449416 0.943984 0.000000
H443  H     H_    0.564123 0.413744 0.853289 0.000000
H444  H     H_    0.511964 0.338576 0.796974 0.000000
H445  H     H_    0.528045 0.175178 0.736224 0.000000
H446  H     H_    0.471712 0.109031 0.698947 0.000000
H447  H     H_    0.411857 0.116135 0.710456 0.000000
H448  H     H_    0.407224 0.188767 0.757843 0.000000
Br57  Br    Br    0.204528 0.650153 0.904269 0.000000
C729  C     C_R   0.189885 0.657110 0.949169 0.000000
C730  C     C_R   0.190178 0.698419 0.978700 0.000000
C731  C     C_R   0.183232 0.709285 0.015902 0.000000
C732  C     C_R   0.177746 0.679013 0.024950 0.000000
C733  C     C_R   0.178274 0.637917 0.996147 0.000000
C734  C     C_R   0.181641 0.624833 0.955556 0.000000
C735  C     C_R   0.176958 0.577610 0.923410 0.000000
N113  N     N_R   0.173221 0.555767 0.876161 0.000000
C736  C     C_R   0.161173 0.514733 0.861591 0.000000
C737  C     C_R   0.152994 0.480143 0.818338 0.000000
C738  C     C_R   0.160017 0.444184 0.816651 0.000000
C739  C     C_R   0.176421 0.445821 0.859975 0.000000
C740  C     C_R   0.172966 0.476299 0.898744 0.000000
C741  C     C_R   0.164952 0.511615 0.898828 0.000000
N114  N     N_R   0.175176 0.550670 0.939626 0.000000
H449  H     H_    0.196278 0.722631 0.972569 0.000000
H450  H     H_    0.183173 0.741624 0.038623 0.000000
H451  H     H_    0.172770 0.687402 0.054658 0.000000
H452  H     H_    0.174433 0.615568 0.005041 0.000000
H453  H     H_    0.147666 0.484921 0.790780 0.000000
H454  H     H_    0.158707 0.417816 0.784771 0.000000
H455  H     H_    0.192840 0.423421 0.863340 0.000000
H456  H     H_    0.186185 0.477257 0.932476 0.000000
Br58  Br    Br    0.077070 0.601420 0.937838 0.000000
C742  C     C_R   0.070071 0.541792 0.908460 0.000000
C743  C     C_R   0.057466 0.515766 0.858674 0.000000
C744  C     C_R   0.049065 0.471872 0.835204 0.000000
C745  C     C_R   0.054190 0.454410 0.861943 0.000000
C746  C     C_R   0.069304 0.480809 0.912834 0.000000
C747  C     C_R   0.076848 0.524684 0.936196 0.000000
C748  C     C_R   0.096021 0.554291 0.990845 0.000000
N115  N     N_R   0.140560 0.575786 0.023517 0.000000
C749  C     C_R   0.143004 0.613034 0.061886 0.000000
C750  C     C_R   0.177177 0.643402 0.111055 0.000000
C751  C     C_R   0.172477 0.681840 0.140121 0.000000
C752  C     C_R   0.133039 0.688070 0.121180 0.000000
C753  C     C_R   0.096984 0.653298 0.076632 0.000000
C754  C     C_R   0.102972 0.615068 0.049911 0.000000
N116  N     N_R   0.072471 0.576609 0.008996 0.000000
H457  H     H_    0.052648 0.529579 0.837514 0.000000
H458  H     H_    0.037492 0.450982 0.795616 0.000000
H459  H     H_    0.045111 0.419736 0.841939 0.000000
H460  H     H_    0.073242 0.467145 0.933810 0.000000
H461  H     H_    0.206163 0.637308 0.128829 0.000000
H462  H     H_    0.199515 0.706792 0.178273 0.000000
H463  H     H_    0.129548 0.718130 0.144110 0.000000
H464  H     H_    0.065267 0.655789 0.065425 0.000000
Br59  Br    Br    0.118911 0.471268 0.618450 0.000000
C755  C     C_R   0.143078 0.461425 0.579974 0.000000
C756  C     C_R   0.167114 0.494432 0.585677 0.000000
C757  C     C_R   0.188230 0.484877 0.561392 0.000000
C758  C     C_R   0.186090 0.442543 0.532507 0.000000
C759  C     C_R   0.161290 0.409676 0.526209 0.000000
C760  C     C_R   0.138382 0.419422 0.548321 0.000000
C761  C     C_R   0.110900 0.385768 0.541303 0.000000
N117  N     N_R   0.128108 0.367883 0.568903 0.000000
C762  C     C_R   0.091296 0.339565 0.550783 0.000000
C763  C     C_R   0.086822 0.311583 0.563102 0.000000
C764  C     C_R   0.045961 0.286379 0.541012 0.000000
C765  C     C_R   0.009938 0.291427 0.510456 0.000000
C766  C     C_R   0.014923 0.321216 0.500611 0.000000
C767  C     C_R   0.055404 0.342401 0.517775 0.000000
N118  N     N_R   0.065445 0.371822 0.510616 0.000000
H465  H     H_    0.171233 0.527916 0.611067 0.000000
H466  H     H_    0.207699 0.510760 0.566504 0.000000
H467  H     H_    0.203438 0.435093 0.514423 0.000000
H468  H     H_    0.158724 0.376293 0.502771 0.000000
H469  H     H_    0.113807 0.307616 0.587796 0.000000
H470  H     H_    0.042073 0.263506 0.548953 0.000000
H471  H     H_    0.978145 0.274102 0.496912 0.000000
H472  H     H_    0.988179 0.330486 0.484721 0.000000
Br60  Br    Br    0.084013 0.922675 0.371160 0.000000
C768  C     C_R   0.037089 0.938878 0.339438 0.000000
C769  C     C_R   0.044123 0.953478 0.314521 0.000000
C770  C     C_R   0.025299 0.981589 0.305840 0.000000
C771  C     C_R   0.998168 0.994041 0.321037 0.000000
C772  C     C_R   0.986917 0.974902 0.339648 0.000000
C773  C     C_R   0.002827 0.944235 0.346107 0.000000
C774  C     C_R   0.993932 0.933548 0.376559 0.000000
N119  N     N_R   0.996234 0.893316 0.370533 0.000000
C775  C     C_R   0.034035 0.908691 0.415337 0.000000
C776  C     C_R   0.062598 0.886701 0.424037 0.000000
C777  C     C_R   0.105659 0.910313 0.463320 0.000000
C778  C     C_R   0.120011 0.955413 0.492434 0.000000
C779  C     C_R   0.091046 0.977245 0.483883 0.000000
C780  C     C_R   0.047898 0.953522 0.447268 0.000000
N120  N     N_R   0.018331 0.969346 0.427306 0.000000
H473  H     H_    0.069147 0.947074 0.307691 0.000000
H474  H     H_    0.033268 0.995210 0.289527 0.000000
H475  H     H_    0.983729 0.017202 0.315907 0.000000
H476  H     H_    0.965675 0.985205 0.350534 0.000000
H477  H     H_    0.054235 0.853038 0.396711 0.000000
H478  H     H_    0.128705 0.893496 0.469003 0.000000
H479  H     H_    0.154030 0.973571 0.521287 0.000000
H480  H     H_    0.102396 0.012140 0.504718 0.000000
Br61  Br    Br    0.905297 0.133861 0.416395 0.000000
C781  C     C_R   0.959333 0.134356 0.425597 0.000000
C782  C     C_R   0.991142 0.173828 0.455815 0.000000
C783  C     C_R   0.030863 0.175847 0.462594 0.000000
C784  C     C_R   0.039713 0.138097 0.442350 0.000000
C785  C     C_R   0.008960 0.098809 0.415880 0.000000
C786  C     C_R   0.967981 0.096383 0.405522 0.000000
C787  C     C_R   0.940794 0.056123 0.388918 0.000000
N121  N     N_R   0.959632 0.037790 0.415610 0.000000
C788  C     C_R   0.925342 0.005165 0.393659 0.000000
C789  C     C_R   0.923210 0.981269 0.411144 0.000000
C790  C     C_R   0.883565 0.952613 0.386329 0.000000
C791  C     C_R   0.850341 0.941594 0.339943 0.000000
C792  C     C_R   0.852286 0.967152 0.323991 0.000000
C793  C     C_R   0.889622 0.001135 0.353744 0.000000
N122  N     N_R   0.896024 0.034034 0.349735 0.000000
H481  H     H_    0.983639 0.202984 0.471799 0.000000
H482  H     H_    0.055319 0.206830 0.484428 0.000000
H483  H     H_    0.071401 0.139370 0.449396 0.000000
H484  H     H_    0.017739 0.069965 0.404730 0.000000
H485  H     H_    0.950235 0.986181 0.444707 0.000000
H486  H     H_    0.878656 0.937449 0.402493 0.000000
H487  H     H_    0.820677 0.917427 0.320300 0.000000
H488  H     H_    0.823129 0.963613 0.293880 0.000000
Br62  Br    Br    0.520521 0.651130 0.069405 0.000000
C794  C     C_R   0.532823 0.663868 0.031518 0.000000
C795  C     C_R   0.560586 0.646860 0.018843 0.000000
C796  C     C_R   0.576123 0.661999 0.000043 0.000000
C797  C     C_R   0.560676 0.690370 0.988556 0.000000
C798  C     C_R   0.533589 0.707717 0.001649 0.000000
C799  C     C_R   0.521131 0.695816 0.025010 0.000000
C800  C     C_R   0.495099 0.717759 0.041195 0.000000
N123  N     N_R   0.450702 0.694987 0.012689 0.000000
C801  C     C_R   0.434757 0.727489 0.017407 0.000000
C802  C     C_R   0.393392 0.725564 0.003985 0.000000
C803  C     C_R   0.380926 0.760588 0.006744 0.000000
C804  C     C_R   0.410940 0.797520 0.025673 0.000000
C805  C     C_R   0.453941 0.800963 0.046170 0.000000
C806  C     C_R   0.466520 0.766426 0.044843 0.000000
N124  N     N_R   0.506928 0.763357 0.065963 0.000000
H489  H     H_    0.572983 0.624470 0.027678 0.000000
H490  H     H_    0.601514 0.652772 0.996043 0.000000
H491  H     H_    0.570686 0.700312 0.970904 0.000000
H492  H     H_    0.522818 0.731378 0.994398 0.000000
H493  H     H_    0.371824 0.698249 0.994107 0.000000
H494  H     H_    0.348083 0.759336 0.994839 0.000000
H495  H     H_    0.401303 0.824960 0.027447 0.000000
H496  H     H_    0.475968 0.830375 0.062359 0.000000
Br63  Br    Br    0.334615 0.584439 0.969730 0.000000
C807  C     C_R   0.320542 0.542892 0.906675 0.000000
C808  C     C_R   0.320511 0.501180 0.889215 0.000000
C809  C     C_R   0.286319 0.468170 0.842574 0.000000
C810  C     C_R   0.249008 0.476854 0.822036 0.000000
C811  C     C_R   0.250134 0.518198 0.843867 0.000000
C812  C     C_R   0.287996 0.549809 0.878256 0.000000
C813  C     C_R   0.292276 0.593373 0.894563 0.000000
N125  N     N_R   0.255719 0.601878 0.868392 0.000000
C814  C     C_R   0.275301 0.635706 0.872368 0.000000
C815  C     C_R   0.255880 0.657653 0.851991 0.000000
C816  C     C_R   0.280886 0.686928 0.853747 0.000000
C817  C     C_R   0.324177 0.692188 0.873306 0.000000
C818  C     C_R   0.343640 0.670495 0.894481 0.000000
C819  C     C_R   0.319557 0.644902 0.897284 0.000000
N126  N     N_R   0.333065 0.621517 0.916910 0.000000
H497  H     H_    0.342617 0.492355 0.912277 0.000000
H498  H     H_    0.287229 0.435805 0.828890 0.000000
H499  H     H_    0.217994 0.453166 0.791519 0.000000
H500  H     H_    0.222032 0.525907 0.837623 0.000000
H501  H     H_    0.221946 0.651700 0.834644 0.000000
H502  H     H_    0.266502 0.704942 0.838430 0.000000
H503  H     H_    0.343011 0.713846 0.872622 0.000000
H504  H     H_    0.377206 0.674800 0.909619 0.000000
Br64  Br    Br    0.371335 0.443202 0.842661 0.000000
C820  C     C_R   0.425791 0.480968 0.904486 0.000000
C821  C     C_R   0.450288 0.470266 0.937587 0.000000
C822  C     C_R   0.487808 0.501233 0.984245 0.000000
C823  C     C_R   0.503269 0.541131 0.995452 0.000000
C824  C     C_R   0.479854 0.550454 0.960871 0.000000
C825  C     C_R   0.440629 0.521253 0.916968 0.000000
C826  C     C_R   0.415206 0.534551 0.884880 0.000000
N127  N     N_R   0.411444 0.515668 0.838421 0.000000
C827  C     C_R   0.416934 0.551222 0.838331 0.000000
C828  C     C_R   0.420956 0.553685 0.804244 0.000000
C829  C     C_R   0.430323 0.594198 0.813143 0.000000
C830  C     C_R   0.435111 0.630957 0.855254 0.000000
C831  C     C_R   0.429630 0.627696 0.888515 0.000000
C832  C     C_R   0.419876 0.587409 0.879040 0.000000
N128  N     N_R   0.415946 0.578124 0.908561 0.000000
H505  H     H_    0.439181 0.438808 0.928779 0.000000
H506  H     H_    0.506665 0.493570 0.010694 0.000000
H507  H     H_    0.534027 0.564245 0.030335 0.000000
H508  H     H_    0.491774 0.580497 0.967413 0.000000
H509  H     H_    0.416321 0.524800 0.771133 0.000000
H510  H     H_    0.433788 0.597209 0.786954 0.000000
H511  H     H_    0.443180 0.662416 0.862109 0.000000
H512  H     H_    0.435253 0.656361 0.922260 0.000000
Br65  Br    Br    0.695677 0.213035 0.169515 0.000000
C833  C     C_R   0.664299 0.187707 0.098454 0.000000
C834  C     C_R   0.648154 0.143483 0.061341 0.000000
C835  C     C_R   0.626379 0.128200 0.010731 0.000000
C836  C     C_R   0.620030 0.157050 0.997276 0.000000
C837  C     C_R   0.634040 0.200873 0.034379 0.000000
C838  C     C_R   0.654968 0.215593 0.084510 0.000000
C839  C     C_R   0.671418 0.261579 0.123895 0.000000
N129  N     N_R   0.648995 0.284406 0.144754 0.000000
C840  C     C_R   0.677060 0.325136 0.174808 0.000000
C841  C     C_R   0.683228 0.359706 0.218388 0.000000
C842  C     C_R   0.709121 0.400148 0.239324 0.000000
C843  C     C_R   0.731282 0.403821 0.219210 0.000000
C844  C     C_R   0.734819 0.366732 0.186330 0.000000
C845  C     C_R   0.708850 0.327022 0.166682 0.000000
N130  N     N_R   0.710739 0.286994 0.140669 0.000000
H513  H     H_    0.653189 0.120715 0.071262 0.000000
H514  H     H_    0.614595 0.093682 0.981770 0.000000
H515  H     H_    0.603341 0.145241 0.957752 0.000000
H516  H     H_    0.628525 0.223868 0.024547 0.000000
H517  H     H_    0.668100 0.355723 0.235463 0.000000
H518  H     H_    0.712589 0.428794 0.271707 0.000000
H519  H     H_    0.751699 0.435487 0.235839 0.000000
H520  H     H_    0.759629 0.369712 0.180062 0.000000
Br66  Br    Br    0.528458 0.120472 0.126966 0.000000
C846  C     C_R   0.561662 0.133395 0.106764 0.000000
C847  C     C_R   0.544235 0.101970 0.056043 0.000000
C848  C     C_R   0.544479 0.113214 0.025895 0.000000
C849  C     C_R   0.563319 0.155937 0.047655 0.000000
C850  C     C_R   0.587848 0.185192 0.099808 0.000000
C851  C     C_R   0.590126 0.174865 0.132050 0.000000
C852  C     C_R   0.607117 0.213376 0.185100 0.000000
N131  N     N_R   0.590375 0.245441 0.182285 0.000000
C853  C     C_R   0.563413 0.243557 0.196432 0.000000
C854  C     C_R   0.525637 0.252459 0.180698 0.000000
C855  C     C_R   0.494567 0.236209 0.183988 0.000000
C856  C     C_R   0.501964 0.211610 0.203336 0.000000
C857  C     C_R   0.540304 0.203213 0.219287 0.000000
C858  C     C_R   0.571839 0.220932 0.218006 0.000000
N132  N     N_R   0.604234 0.205760 0.218072 0.000000
H521  H     H_    0.523542 0.069986 0.038145 0.000000
H522  H     H_    0.526661 0.089715 0.985158 0.000000
H523  H     H_    0.560017 0.166582 0.024008 0.000000
H524  H     H_    0.602396 0.217852 0.114772 0.000000
H525  H     H_    0.519424 0.270305 0.163900 0.000000
H526  H     H_    0.464004 0.241693 0.170032 0.000000
H527  H     H_    0.476550 0.196358 0.202618 0.000000
H528  H     H_    0.541329 0.176103 0.221995 0.000000
Br67  Br    Br    0.556649 0.283822 0.459336 0.000000
C859  C     C_R   0.613336 0.281219 0.491504 0.000000
C860  C     C_R   0.617582 0.243821 0.488056 0.000000
C861  C     C_R   0.657849 0.241878 0.514621 0.000000
C862  C     C_R   0.694026 0.277083 0.543173 0.000000
C863  C     C_R   0.689651 0.314787 0.547170 0.000000
C864  C     C_R   0.649394 0.317354 0.522361 0.000000
C865  C     C_R   0.643211 0.359190 0.538463 0.000000
N133  N     N_R   0.627012 0.372713 0.506074 0.000000
C866  C     C_R   0.606723 0.398272 0.524270 0.000000
C867  C     C_R   0.568640 0.403499 0.498331 0.000000
C868  C     C_R   0.556828 0.435052 0.526174 0.000000
C869  C     C_R   0.580505 0.455895 0.578045 0.000000
C870  C     C_R   0.609060 0.438140 0.598738 0.000000
C871  C     C_R   0.617168 0.405714 0.568476 0.000000
N134  N     N_R   0.636272 0.378692 0.577144 0.000000
H529  H     H_    0.588567 0.217306 0.466475 0.000000
H530  H     H_    0.661596 0.212955 0.512993 0.000000
H531  H     H_    0.725717 0.275562 0.563597 0.000000
H532  H     H_    0.718019 0.342853 0.571891 0.000000
H533  H     H_    0.547326 0.383518 0.457847 0.000000
H534  H     H_    0.529041 0.442894 0.507536 0.000000
H535  H     H_    0.571486 0.480871 0.599920 0.000000
H536  H     H_    0.622733 0.446231 0.635983 0.000000
Br68  Br    Br    0.753604 0.431996 0.622283 0.000000
C872  C     C_R   0.786903 0.418869 0.594756 0.000000
C873  C     C_R   0.813532 0.395300 0.602822 0.000000
C874  C     C_R   0.835479 0.385009 0.579680 0.000000
C875  C     C_R   0.834137 0.402518 0.553711 0.000000
C876  C     C_R   0.810191 0.428903 0.549354 0.000000
C877  C     C_R   0.784229 0.434139 0.566759 0.000000
C878  C     C_R   0.755075 0.457785 0.558711 0.000000
N135  N     N_R   0.710231 0.437514 0.527279 0.000000
C879  C     C_R   0.697869 0.472377 0.541947 0.000000
C880  C     C_R   0.657206 0.471295 0.528266 0.000000
C881  C     C_R   0.649142 0.509293 0.549789 0.000000
C882  C     C_R   0.683006 0.548022 0.584751 0.000000
C883  C     C_R   0.724561 0.548546 0.598252 0.000000
C884  C     C_R   0.731426 0.510060 0.577122 0.000000
N136  N     N_R   0.769303 0.503091 0.589540 0.000000
H537  H     H_    0.815507 0.383097 0.624774 0.000000
H538  H     H_    0.854351 0.364091 0.582960 0.000000
H539  H     H_    0.850634 0.394675 0.535009 0.000000
H540  H     H_    0.809769 0.443055 0.529650 0.000000
H541  H     H_    0.633140 0.440668 0.502586 0.000000
H542  H     H_    0.616829 0.508863 0.539861 0.000000
H543  H     H_    0.677011 0.577990 0.602285 0.000000
H544  H     H_    0.751232 0.577964 0.629116 0.000000
Br69  Br    Br    0.561110 0.323791 0.391742 0.000000
C885  C     C_R   0.555004 0.264941 0.355641 0.000000
C886  C     C_R   0.516513 0.236674 0.336008 0.000000
C887  C     C_R   0.506602 0.192569 0.306097 0.000000
C888  C     C_R   0.534490 0.176776 0.293526 0.000000
C889  C     C_R   0.571665 0.205103 0.310766 0.000000
C890  C     C_R   0.584064 0.249826 0.343450 0.000000
C891  C     C_R   0.628066 0.277971 0.365060 0.000000
N137  N     N_R   0.654413 0.256808 0.350979 0.000000
C892  C     C_R   0.691606 0.276334 0.396978 0.000000
C893  C     C_R   0.719715 0.255788 0.409591 0.000000
C894  C     C_R   0.746792 0.270833 0.460078 0.000000
C895  C     C_R   0.745426 0.306463 0.496919 0.000000
C896  C     C_R   0.717788 0.328092 0.483988 0.000000
C897  C     C_R   0.690001 0.311078 0.433760 0.000000
N138  N     N_R   0.651971 0.316886 0.414526 0.000000
H545  H     H_    0.493893 0.249593 0.344567 0.000000
H546  H     H_    0.476688 0.170673 0.291487 0.000000
H547  H     H_    0.526655 0.142082 0.268514 0.000000
H548  H     H_    0.590751 0.191003 0.296720 0.000000
H549  H     H_    0.716949 0.225897 0.379286 0.000000
H550  H     H_    0.767559 0.253599 0.470919 0.000000
H551  H     H_    0.763858 0.314970 0.535125 0.000000
H552  H     H_    0.713361 0.353577 0.511225 0.000000
Br70  Br    Br    0.514732 0.861499 0.162695 0.000000
C898  C     C_R   0.500649 0.853077 0.199879 0.000000
C899  C     C_R   0.464632 0.863298 0.197589 0.000000
C900  C     C_R   0.449343 0.856644 0.221676 0.000000
C901  C     C_R   0.471886 0.841883 0.250145 0.000000
C902  C     C_R   0.507186 0.831082 0.251497 0.000000
C903  C     C_R   0.522850 0.835729 0.226111 0.000000
C904  C     C_R   0.562629 0.823767 0.230926 0.000000
N139  N     N_R   0.579546 0.818706 0.201554 0.000000
C905  C     C_R   0.614612 0.809654 0.224493 0.000000
C906  C     C_R   0.647342 0.809738 0.218949 0.000000
C907  C     C_R   0.678266 0.794123 0.238694 0.000000
C908  C     C_R   0.675669 0.779117 0.264824 0.000000
C909  C     C_R   0.647969 0.789059 0.280415 0.000000
C910  C     C_R   0.617995 0.805921 0.260636 0.000000
N140  N     N_R   0.586566 0.815774 0.267825 0.000000
H553  H     H_    0.448197 0.876259 0.175980 0.000000
H554  H     H_    0.421750 0.865392 0.220824 0.000000
H555  H     H_    0.463869 0.841939 0.274744 0.000000
H556  H     H_    0.523519 0.821461 0.275580 0.000000
H557  H     H_    0.649892 0.824278 0.201583 0.000000
H558  H     H_    0.703693 0.793567 0.232767 0.000000
H559  H     H_    0.697666 0.762935 0.275909 0.000000
H560  H     H_    0.649406 0.782285 0.306177 0.000000
Br71  Br    Br    0.503877 0.943537 0.341746 0.000000
C911  C     C_R   0.542285 0.937025 0.319742 0.000000
C912  C     C_R   0.532824 0.947259 0.285650 0.000000
C913  C     C_R   0.560753 0.949350 0.272206 0.000000
C914  C     C_R   0.598072 0.940990 0.292964 0.000000
C915  C     C_R   0.605769 0.926468 0.322562 0.000000
C916  C     C_R   0.578412 0.924244 0.336505 0.000000
C917  C     C_R   0.592700 0.918933 0.377420 0.000000
N141  N     N_R   0.595689 0.953439 0.419129 0.000000
C918  C     C_R   0.571500 0.931892 0.425295 0.000000
C919  C     C_R   0.550937 0.947221 0.449821 0.000000
C920  C     C_R   0.531102 0.919379 0.454251 0.000000
C921  C     C_R   0.530551 0.876648 0.432570 0.000000
C922  C     C_R   0.546036 0.860076 0.401985 0.000000
C923  C     C_R   0.564653 0.888136 0.397481 0.000000
N142  N     N_R   0.578380 0.878126 0.366855 0.000000
H561  H     H_    0.504053 0.955461 0.271033 0.000000
H562  H     H_    0.554449 0.960017 0.247892 0.000000
H563  H     H_    0.623583 0.949455 0.290455 0.000000
H564  H     H_    0.635116 0.920235 0.337808 0.000000
H565  H     H_    0.549133 0.979548 0.464060 0.000000
H566  H     H_    0.516149 0.931098 0.475057 0.000000
H567  H     H_    0.516324 0.855888 0.438016 0.000000
H568  H     H_    0.543888 0.826412 0.382483 0.000000
Br72  Br    Br    0.731149 0.792828 0.373520 0.000000
C924  C     C_R   0.716607 0.845040 0.394881 0.000000
C925  C     C_R   0.722006 0.869442 0.379124 0.000000
C926  C     C_R   0.703736 0.901040 0.383979 0.000000
C927  C     C_R   0.685322 0.912573 0.411041 0.000000
C928  C     C_R   0.680674 0.888897 0.427701 0.000000
C929  C     C_R   0.695863 0.855457 0.419330 0.000000
C930  C     C_R   0.673639 0.821846 0.414946 0.000000
N143  N     N_R   0.630092 0.799874 0.374343 0.000000
C931  C     C_R   0.626159 0.760266 0.365817 0.000000
C932  C     C_R   0.592737 0.722544 0.324667 0.000000
C933  C     C_R   0.602684 0.685988 0.302264 0.000000
C934  C     C_R   0.644780 0.687578 0.325885 0.000000
C935  C     C_R   0.674573 0.722589 0.375198 0.000000
C936  C     C_R   0.665102 0.758690 0.395830 0.000000
N144  N     N_R   0.695916 0.797985 0.431266 0.000000
H569  H     H_    0.738001 0.861412 0.360055 0.000000
H570  H     H_    0.704116 0.917303 0.367026 0.000000
H571  H     H_    0.673129 0.939198 0.417686 0.000000
H572  H     H_    0.659861 0.891763 0.440630 0.000000
H573  H     H_    0.560217 0.721926 0.308246 0.000000
H574  H     H_    0.578260 0.656890 0.265696 0.000000
H575  H     H_    0.653631 0.660481 0.306806 0.000000
H576  H     H_    0.706738 0.725204 0.396579 0.000000
Br73  Br    Br    0.931302 0.140492 0.836408 0.000000
C937  C     C_R   0.885037 0.098304 0.817236 0.000000
C938  C     C_R   0.892806 0.079886 0.843678 0.000000
C939  C     C_R   0.859658 0.047868 0.828226 0.000000
C940  C     C_R   0.819270 0.033302 0.785321 0.000000
C941  C     C_R   0.811782 0.050951 0.758095 0.000000
C942  C     C_R   0.844282 0.084804 0.775352 0.000000
C943  C     C_R   0.836675 0.106656 0.749956 0.000000
N145  N     N_R   0.836061 0.149948 0.771978 0.000000
C944  C     C_R   0.838961 0.158208 0.741671 0.000000
C945  C     C_R   0.841059 0.196337 0.745227 0.000000
C946  C     C_R   0.848607 0.199580 0.713581 0.000000
C947  C     C_R   0.864869 0.170588 0.690478 0.000000
C948  C     C_R   0.860993 0.131882 0.686095 0.000000
C949  C     C_R   0.842514 0.124351 0.706603 0.000000
N146  N     N_R   0.838101 0.089004 0.706818 0.000000
H577  H     H_    0.924823 0.090615 0.876525 0.000000
H578  H     H_    0.865428 0.033778 0.849301 0.000000
H579  H     H_    0.793196 0.008501 0.773489 0.000000
H580  H     H_    0.780240 0.038959 0.724242 0.000000
H581  H     H_    0.840361 0.224445 0.773703 0.000000
H582  H     H_    0.847603 0.227514 0.712270 0.000000
H583  H     H_    0.879720 0.178401 0.675234 0.000000
H584  H     H_    0.874335 0.108927 0.670150 0.000000
Br74  Br    Br    0.740983 0.293511 0.879742 0.000000
C950  C     C_R   0.800329 0.313358 0.919401 0.000000
C951  C     C_R   0.819252 0.353283 0.935015 0.000000
C952  C     C_R   0.862493 0.367593 0.956010 0.000000
C953  C     C_R   0.887178 0.343514 0.965379 0.000000
C954  C     C_R   0.867414 0.302685 0.948580 0.000000
C955  C     C_R   0.824111 0.287321 0.924324 0.000000
C956  C     C_R   0.805042 0.243111 0.903383 0.000000
N147  N     N_R   0.782073 0.231226 0.918268 0.000000
C957  C     C_R   0.776571 0.188008 0.894838 0.000000
C958  C     C_R   0.754309 0.157175 0.893551 0.000000
C959  C     C_R   0.755028 0.115302 0.869326 0.000000
C960  C     C_R   0.777176 0.104439 0.846134 0.000000
C961  C     C_R   0.798237 0.135239 0.846201 0.000000
C962  C     C_R   0.796891 0.176370 0.869992 0.000000
N148  N     N_R   0.813485 0.209966 0.872058 0.000000
H585  H     H_    0.797887 0.369654 0.923380 0.000000
H586  H     H_    0.877012 0.396100 0.962010 0.000000
H587  H     H_    0.921561 0.356312 0.984167 0.000000
H588  H     H_    0.885363 0.282209 0.954672 0.000000
H589  H     H_    0.737216 0.165189 0.911823 0.000000
H590  H     H_    0.738287 0.090899 0.868641 0.000000
H591  H     H_    0.777221 0.071547 0.827438 0.000000
H592  H     H_    0.815275 0.127775 0.828250 0.000000
Br75  Br    Br    0.735909 0.150218 0.640207 0.000000
C963  C     C_R   0.724926 0.121021 0.664639 0.000000
C964  C     C_R   0.714978 0.077337 0.642314 0.000000
C965  C     C_R   0.710744 0.060409 0.666588 0.000000
C966  C     C_R   0.726631 0.087658 0.716801 0.000000
C967  C     C_R   0.740746 0.131256 0.739205 0.000000
C968  C     C_R   0.731510 0.146804 0.710157 0.000000
C969  C     C_R   0.741649 0.192607 0.732243 0.000000
N149  N     N_R   0.780560 0.220451 0.778253 0.000000
C970  C     C_R   0.777409 0.258741 0.787847 0.000000
C971  C     C_R   0.807014 0.297616 0.829312 0.000000
C972  C     C_R   0.796107 0.333664 0.834894 0.000000
C973  C     C_R   0.754619 0.329579 0.802978 0.000000
C974  C     C_R   0.725590 0.289195 0.759529 0.000000
C975  C     C_R   0.738759 0.254543 0.751075 0.000000
N150  N     N_R   0.714234 0.212757 0.712886 0.000000
H593  H     H_    0.706656 0.056969 0.604524 0.000000
H594  H     H_    0.695961 0.026426 0.647641 0.000000
H595  H     H_    0.727823 0.075008 0.738108 0.000000
H596  H     H_    0.756417 0.153189 0.778834 0.000000
H597  H     H_    0.836720 0.299297 0.857450 0.000000
H598  H     H_    0.818932 0.365035 0.866509 0.000000
H599  H     H_    0.746183 0.358671 0.811946 0.000000
H600  H     H_    0.693664 0.283888 0.732175 0.000000
Br76  Br    Br    0.662525 0.731468 0.478598 0.000000
C976  C     C_R   0.674369 0.688081 0.433135 0.000000
C977  C     C_R   0.639497 0.653563 0.388011 0.000000
C978  C     C_R   0.644540 0.621483 0.352084 0.000000
C979  C     C_R   0.684275 0.626088 0.359435 0.000000
C980  C     C_R   0.719292 0.661614 0.403945 0.000000
C981  C     C_R   0.715185 0.691252 0.442312 0.000000
C982  C     C_R   0.752592 0.721804 0.493861 0.000000
N151  N     N_R   0.759131 0.766909 0.517858 0.000000
C983  C     C_R   0.765463 0.777145 0.562514 0.000000
C984  C     C_R   0.768527 0.815240 0.600576 0.000000
C985  C     C_R   0.771481 0.817578 0.641045 0.000000
C986  C     C_R   0.769287 0.781248 0.642034 0.000000
C987  C     C_R   0.766135 0.742848 0.603614 0.000000
C988  C     C_R   0.766184 0.742257 0.565859 0.000000
N152  N     N_R   0.761983 0.707429 0.525270 0.000000
H601  H     H_    0.608343 0.652577 0.381937 0.000000
H602  H     H_    0.617138 0.594557 0.316480 0.000000
H603  H     H_    0.687406 0.602741 0.329360 0.000000
H604  H     H_    0.749736 0.665891 0.408203 0.000000
H605  H     H_    0.770407 0.842934 0.599870 0.000000
H606  H     H_    0.774834 0.847748 0.671856 0.000000
H607  H     H_    0.770027 0.782945 0.672824 0.000000
H608  H     H_    0.762507 0.713680 0.602463 0.000000
Br77  Br    Br    0.667626 0.542399 0.487377 0.000000
C989  C     C_R   0.693651 0.599726 0.547706 0.000000
C990  C     C_R   0.663122 0.617898 0.552727 0.000000
C991  C     C_R   0.674161 0.656102 0.596716 0.000000
C992  C     C_R   0.716354 0.676407 0.637006 0.000000
C993  C     C_R   0.747266 0.659069 0.632716 0.000000
C994  C     C_R   0.737554 0.620435 0.588525 0.000000
C995  C     C_R   0.775963 0.611775 0.586516 0.000000
N153  N     N_R   0.807200 0.605310 0.622853 0.000000
C996  C     C_R   0.840250 0.642372 0.653287 0.000000
C997  C     C_R   0.872426 0.658963 0.702679 0.000000
C998  C     C_R   0.894986 0.702895 0.735565 0.000000
C999  C     C_R   0.881515 0.729072 0.719124 0.000000
C1000 C     C_R   0.848454 0.710751 0.669077 0.000000
C1001 C     C_R   0.832542 0.666489 0.633839 0.000000
N154  N     N_R   0.794843 0.644355 0.586997 0.000000
H609  H     H_    0.629483 0.600793 0.521568 0.000000
H610  H     H_    0.649701 0.669578 0.599825 0.000000
H611  H     H_    0.725608 0.706621 0.671994 0.000000
H612  H     H_    0.780003 0.677787 0.665028 0.000000
H613  H     H_    0.877649 0.638533 0.716125 0.000000
H614  H     H_    0.919750 0.717144 0.775065 0.000000
H615  H     H_    0.894743 0.764044 0.746228 0.000000
H616  H     H_    0.832176 0.730903 0.659937 0.000000
Br78  Br    Br    0.973725 0.714737 0.616516 0.000000
C1002 C     C_R   0.935780 0.731367 0.633385 0.000000
C1003 C     C_R   0.952039 0.769383 0.680545 0.000000
C1004 C     C_R   0.924840 0.789380 0.690779 0.000000
C1005 C     C_R   0.881653 0.770052 0.653722 0.000000
C1006 C     C_R   0.865863 0.728605 0.609978 0.000000
C1007 C     C_R   0.892560 0.708465 0.597627 0.000000
C1008 C     C_R   0.872478 0.667342 0.544890 0.000000
N155  N     N_R   0.890938 0.650588 0.515797 0.000000
C1009 C     C_R   0.854139 0.625914 0.468446 0.000000
C1010 C     C_R   0.849903 0.601073 0.423533 0.000000
C1011 C     C_R   0.808593 0.581174 0.379598 0.000000
C1012 C     C_R   0.773999 0.589883 0.381309 0.000000
C1013 C     C_R   0.778334 0.610003 0.426844 0.000000
C1014 C     C_R   0.818214 0.625704 0.469067 0.000000
N156  N     N_R   0.827747 0.648206 0.515868 0.000000
H617  H     H_    0.986553 0.785351 0.707783 0.000000
H618  H     H_    0.937252 0.820629 0.726172 0.000000
H619  H     H_    0.859693 0.786315 0.660164 0.000000
H620  H     H_    0.831965 0.713304 0.584484 0.000000
H621  H     H_    0.877836 0.596240 0.424289 0.000000
H622  H     H_    0.800746 0.556233 0.343095 0.000000
H623  H     H_    0.742609 0.575190 0.346289 0.000000
H624  H     H_    0.751186 0.613225 0.429166 0.000000
Br79  Br    Br    0.812303 0.504673 0.851896 0.000000
C1015 C     C_R   0.850484 0.481699 0.878008 0.000000
C1016 C     C_R   0.835690 0.454960 0.886745 0.000000
C1017 C     C_R   0.863973 0.448730 0.921734 0.000000
C1018 C     C_R   0.906765 0.470704 0.950134 0.000000
C1019 C     C_R   0.920416 0.499620 0.943473 0.000000
C1020 C     C_R   0.893456 0.503541 0.904980 0.000000
C1021 C     C_R   0.912291 0.537022 0.902739 0.000000
N157  N     N_R   0.889984 0.554190 0.874213 0.000000
C1022 C     C_R   0.924228 0.585866 0.892389 0.000000
C1023 C     C_R   0.922749 0.618826 0.885987 0.000000
C1024 C     C_R   0.960271 0.653004 0.914302 0.000000
C1025 C     C_R   0.999184 0.653264 0.947729 0.000000
C1026 C     C_R   0.000390 0.619964 0.954090 0.000000
C1027 C     C_R   0.962851 0.586917 0.926667 0.000000
N158  N     N_R   0.957326 0.557705 0.936185 0.000000
H625  H     H_    0.801686 0.442513 0.870319 0.000000
H626  H     H_    0.851945 0.429766 0.929510 0.000000
H627  H     H_    0.929194 0.468384 0.980533 0.000000
H628  H     H_    0.951413 0.523033 0.973252 0.000000
H629  H     H_    0.893180 0.618360 0.859730 0.000000
H630  H     H_    0.959204 0.679785 0.910478 0.000000
H631  H     H_    0.028413 0.680182 0.970034 0.000000
H632  H     H_    0.029618 0.621254 0.982204 0.000000
Br80  Br    Br    0.960553 0.643471 0.020763 0.000000
C1028 C     C_R   0.921605 0.599114 0.008582 0.000000
C1029 C     C_R   0.878241 0.581079 0.972676 0.000000
C1030 C     C_R   0.853837 0.552493 0.971994 0.000000
C1031 C     C_R   0.871168 0.544201 0.007780 0.000000
C1032 C     C_R   0.914261 0.561273 0.042351 0.000000
C1033 C     C_R   0.938545 0.586567 0.040130 0.000000
C1034 C     C_R   0.981850 0.608471 0.079320 0.000000
N159  N     N_R   0.015513 0.603660 0.072506 0.000000
C1035 C     C_R   0.049685 0.629116 0.122103 0.000000
C1036 C     C_R   0.092426 0.633397 0.141678 0.000000
C1037 C     C_R   0.122369 0.661489 0.193629 0.000000
C1038 C     C_R   0.108933 0.681027 0.225952 0.000000
C1039 C     C_R   0.065470 0.672120 0.206603 0.000000
C1040 C     C_R   0.036204 0.646463 0.154626 0.000000
N160  N     N_R   0.992587 0.633095 0.128382 0.000000
H633  H     H_    0.864036 0.587947 0.944515 0.000000
H634  H     H_    0.821625 0.533065 0.941615 0.000000
H635  H     H_    0.850748 0.523539 0.007157 0.000000
H636  H     H_    0.929349 0.554895 0.070783 0.000000
H637  H     H_    0.102658 0.613240 0.117975 0.000000
H638  H     H_    0.156270 0.665905 0.209259 0.000000
H639  H     H_    0.132454 0.701842 0.266610 0.000000
H640  H     H_    0.055647 0.686817 0.232293 0.000000
Br81  Br    Br    0.851303 0.302179 0.093149 0.000000
C1041 C     C_R   0.885273 0.294766 0.068924 0.000000
C1042 C     C_R   0.907599 0.266255 0.069670 0.000000
C1043 C     C_R   0.937005 0.264952 0.057454 0.000000
C1044 C     C_R   0.945240 0.294422 0.048415 0.000000
C1045 C     C_R   0.924713 0.324581 0.051389 0.000000
C1046 C     C_R   0.892751 0.323545 0.058959 0.000000
C1047 C     C_R   0.868166 0.353573 0.058409 0.000000
N161  N     N_R   0.822380 0.338244 0.025094 0.000000
C1048 C     C_R   0.816241 0.376920 0.039177 0.000000
C1049 C     C_R   0.781607 0.386384 0.014880 0.000000
C1050 C     C_R   0.778535 0.425686 0.044360 0.000000
C1051 C     C_R   0.812511 0.455460 0.093802 0.000000
C1052 C     C_R   0.852042 0.450628 0.106901 0.000000
C1053 C     C_R   0.853224 0.411028 0.079327 0.000000
N162  N     N_R   0.888297 0.399614 0.091755 0.000000
H641  H     H_    0.903007 0.246110 0.081328 0.000000
H642  H     H_    0.955086 0.242918 0.057710 0.000000
H643  H     H_    0.970179 0.296364 0.042684 0.000000
H644  H     H_    0.933138 0.348588 0.046582 0.000000
H645  H     H_    0.757821 0.364440 0.974858 0.000000
H646  H     H_    0.751406 0.435176 0.028336 0.000000
H647  H     H_    0.810026 0.486252 0.116624 0.000000
H648  H     H_    0.881365 0.476451 0.136334 0.000000
Br82  Br    Br    0.929889 0.463221 0.055866 0.000000
C1054 C     C_R   0.882784 0.481655 0.053232 0.000000
C1055 C     C_R   0.841597 0.459001 0.011327 0.000000
C1056 C     C_R   0.807834 0.470725 0.012243 0.000000
C1057 C     C_R   0.815323 0.506340 0.056107 0.000000
C1058 C     C_R   0.856564 0.528192 0.098512 0.000000
C1059 C     C_R   0.889965 0.517903 0.095433 0.000000
C1060 C     C_R   0.932252 0.541269 0.140123 0.000000
N163  N     N_R   0.953707 0.522193 0.165003 0.000000
C1061 C     C_R   0.986400 0.558130 0.209707 0.000000
C1062 C     C_R   0.018707 0.560030 0.250841 0.000000
C1063 C     C_R   0.051335 0.599637 0.291840 0.000000
C1064 C     C_R   0.051844 0.635779 0.290231 0.000000
C1065 C     C_R   0.018815 0.633266 0.248446 0.000000
C1066 C     C_R   0.985836 0.594630 0.209355 0.000000
N164  N     N_R   0.951531 0.586071 0.165775 0.000000
H649  H     H_    0.835288 0.433649 0.976881 0.000000
H650  H     H_    0.775507 0.450216 0.979147 0.000000
H651  H     H_    0.788884 0.513532 0.059263 0.000000
H652  H     H_    0.862809 0.550415 0.135630 0.000000
H653  H     H_    0.020560 0.531020 0.249763 0.000000
H654  H     H_    0.078079 0.601874 0.323993 0.000000
H655  H     H_    0.078111 0.666183 0.321911 0.000000
H656  H     H_    0.017653 0.661569 0.248017 0.000000
Br83  Br    Br    0.031078 0.566251 0.352820 0.000000
C1067 C     C_R   0.053935 0.520946 0.330149 0.000000
C1068 C     C_R   0.097909 0.532144 0.352295 0.000000
C1069 C     C_R   0.115826 0.500693 0.337056 0.000000
C1070 C     C_R   0.089913 0.457699 0.301080 0.000000
C1071 C     C_R   0.046120 0.446297 0.279885 0.000000
C1072 C     C_R   0.027424 0.477795 0.292368 0.000000
C1073 C     C_R   0.980231 0.467085 0.264169 0.000000
N165  N     N_R   0.957731 0.469337 0.286788 0.000000
C1074 C     C_R   0.928955 0.486539 0.268405 0.000000
C1075 C     C_R   0.893188 0.489064 0.269950 0.000000
C1076 C     C_R   0.863323 0.499854 0.240025 0.000000
C1077 C     C_R   0.875901 0.521300 0.224422 0.000000
C1078 C     C_R   0.912761 0.519593 0.225056 0.000000
C1079 C     C_R   0.932927 0.493321 0.237260 0.000000
N166  N     N_R   0.960659 0.475356 0.226955 0.000000
H657  H     H_    0.118327 0.565854 0.381332 0.000000
H658  H     H_    0.150255 0.509620 0.354130 0.000000
H659  H     H_    0.104037 0.432721 0.290295 0.000000
H660  H     H_    0.026910 0.412493 0.254418 0.000000
H661  H     H_    0.885265 0.477581 0.287711 0.000000
H662  H     H_    0.831014 0.493639 0.231173 0.000000
H663  H     H_    0.855506 0.536322 0.208273 0.000000
H664  H     H_    0.921898 0.535657 0.212077 0.000000
Br84  Br    Br    0.217938 0.205494 0.581465 0.000000
C1080 C     C_R   0.174736 0.216208 0.538746 0.000000
C1081 C     C_R   0.158710 0.190408 0.487678 0.000000
C1082 C     C_R   0.136474 0.204015 0.457306 0.000000
C1083 C     C_R   0.132900 0.244580 0.479185 0.000000
C1084 C     C_R   0.148657 0.269666 0.530111 0.000000
C1085 C     C_R   0.167217 0.254701 0.560001 0.000000
C1086 C     C_R   0.182985 0.281734 0.614629 0.000000
N167  N     N_R   0.193906 0.265258 0.644783 0.000000
C1087 C     C_R   0.210147 0.302328 0.689617 0.000000
C1088 C     C_R   0.218696 0.304397 0.729974 0.000000
C1089 C     C_R   0.212992 0.338036 0.762842 0.000000
C1090 C     C_R   0.216743 0.375200 0.765940 0.000000
C1091 C     C_R   0.218828 0.376534 0.729834 0.000000
C1092 C     C_R   0.208605 0.337491 0.688254 0.000000
N168  N     N_R   0.190522 0.327109 0.641418 0.000000
H665  H     H_    0.165652 0.160585 0.472108 0.000000
H666  H     H_    0.124627 0.184391 0.417464 0.000000
H667  H     H_    0.118758 0.257377 0.456865 0.000000
H668  H     H_    0.148321 0.302065 0.546845 0.000000
H669  H     H_    0.219615 0.275925 0.728460 0.000000
H670  H     H_    0.207323 0.336698 0.787884 0.000000
H671  H     H_    0.217147 0.401306 0.797061 0.000000
H672  H     H_    0.221893 0.404870 0.729951 0.000000
Br85  Br    Br    0.104656 0.124565 0.647124 0.000000
C1093 C     C_R   0.084663 0.159348 0.623250 0.000000
C1094 C     C_R   0.067847 0.187801 0.645759 0.000000
C1095 C     C_R   0.052404 0.214701 0.631464 0.000000
C1096 C     C_R   0.056806 0.215220 0.596825 0.000000
C1097 C     C_R   0.076134 0.188702 0.576187 0.000000
C1098 C     C_R   0.088247 0.159194 0.587371 0.000000
C1099 C     C_R   0.106007 0.130410 0.561791 0.000000
N169  N     N_R   0.147872 0.146560 0.575444 0.000000
C1100 C     C_R   0.145189 0.113628 0.532671 0.000000
C1101 C     C_R   0.175632 0.106367 0.520541 0.000000
C1102 C     C_R   0.164196 0.070872 0.473969 0.000000
C1103 C     C_R   0.123072 0.041462 0.439157 0.000000
C1104 C     C_R   0.093338 0.046552 0.451619 0.000000
C1105 C     C_R   0.105035 0.081816 0.497962 0.000000
N170  N     N_R   0.079450 0.089578 0.514942 0.000000
H673  H     H_    0.067365 0.189448 0.675826 0.000000
H674  H     H_    0.038321 0.236379 0.648833 0.000000
H675  H     H_    0.045944 0.237419 0.587702 0.000000
H676  H     H_    0.082196 0.191010 0.551346 0.000000
H677  H     H_    0.208368 0.125862 0.544182 0.000000
H678  H     H_    0.187998 0.066143 0.464783 0.000000
H679  H     H_    0.115088 0.014337 0.402959 0.000000
H680  H     H_    0.061432 0.023648 0.425890 0.000000
Br86  Br    Br    0.936063 0.136248 0.660068 0.000000
C1106 C     C_R   0.915958 0.083724 0.595282 0.000000
C1107 C     C_R   0.902171 0.084512 0.553466 0.000000
C1108 C     C_R   0.897356 0.049547 0.511002 0.000000
C1109 C     C_R   0.902741 0.012947 0.509329 0.000000
C1110 C     C_R   0.910315 0.010220 0.548144 0.000000
C1111 C     C_R   0.913618 0.044791 0.589719 0.000000
C1112 C     C_R   0.925935 0.044244 0.633100 0.000000
N171  N     N_R   0.968420 0.047274 0.662748 0.000000
C1113 C     C_R   0.969980 0.055411 0.704051 0.000000
C1114 C     C_R   0.004716 0.062770 0.747807 0.000000
C1115 C     C_R   0.998097 0.064884 0.782870 0.000000
C1116 C     C_R   0.957154 0.058790 0.773403 0.000000
C1117 C     C_R   0.922932 0.054175 0.730841 0.000000
C1118 C     C_R   0.930227 0.053718 0.697238 0.000000
N172  N     N_R   0.900065 0.045994 0.652093 0.000000
H681  H     H_    0.898564 0.113809 0.555622 0.000000
H682  H     H_    0.891028 0.051649 0.480193 0.000000
H683  H     H_    0.900354 0.985794 0.477529 0.000000
H684  H     H_    0.912753 0.980441 0.544757 0.000000
H685  H     H_    0.036475 0.066855 0.755095 0.000000
H686  H     H_    0.024772 0.069850 0.817121 0.000000
H687  H     H_    0.952092 0.058019 0.799808 0.000000
H688  H     H_    0.891099 0.049167 0.723303 0.000000
Br87  Br    Br    0.110910 0.024292 0.592439 0.000000
C1119 C     C_R   0.057635 0.978697 0.545399 0.000000
C1120 C     C_R   0.056882 0.936817 0.522780 0.000000
C1121 C     C_R   0.019291 0.903955 0.494556 0.000000
C1122 C     C_R   0.983881 0.913246 0.494353 0.000000
C1123 C     C_R   0.983699 0.954533 0.513568 0.000000
C1124 C     C_R   0.020353 0.986815 0.537673 0.000000
C1125 C     C_R   0.018895 0.029446 0.556226 0.000000
N173  N     N_R   0.013636 0.051806 0.595752 0.000000
C1126 C     C_R   0.002575 0.084137 0.590945 0.000000
C1127 C     C_R   0.000188 0.121273 0.623983 0.000000
C1128 C     C_R   0.983330 0.147366 0.607990 0.000000
C1129 C     C_R   0.973129 0.137882 0.561503 0.000000
C1130 C     C_R   0.984123 0.105244 0.533588 0.000000
C1131 C     C_R   0.998862 0.079076 0.549398 0.000000
N174  N     N_R   0.011274 0.046067 0.527858 0.000000
H689  H     H_    0.086288 0.929750 0.529889 0.000000
H690  H     H_    0.021062 0.872183 0.480618 0.000000
H691  H     H_    0.956868 0.889636 0.482018 0.000000
H692  H     H_    0.955411 0.961588 0.511393 0.000000
H693  H     H_    0.010970 0.130096 0.661017 0.000000
H694  H     H_    0.979338 0.176123 0.632496 0.000000
H695  H     H_    0.960553 0.158664 0.549765 0.000000
H696  H     H_    0.981163 0.100937 0.500794 0.000000
Br88  Br    Br    0.956318 0.860453 0.603230 0.000000
C1132 C     C_R   0.992138 0.912669 0.662447 0.000000
C1133 C     C_R   0.001507 0.918930 0.706896 0.000000
C1134 C     C_R   0.028383 0.958350 0.751971 0.000000
C1135 C     C_R   0.045994 0.990470 0.751662 0.000000
C1136 C     C_R   0.035889 0.983878 0.706532 0.000000
C1137 C     C_R   0.006774 0.944615 0.660157 0.000000
C1138 C     C_R   0.996436 0.936657 0.611056 0.000000
N175  N     N_R   0.022542 0.972079 0.622070 0.000000
C1139 C     C_R   0.050771 0.953825 0.613388 0.000000
C1140 C     C_R   0.092747 0.974247 0.635147 0.000000
C1141 C     C_R   0.117960 0.949192 0.625316 0.000000
C1142 C     C_R   0.100392 0.904278 0.593294 0.000000
C1143 C     C_R   0.057762 0.884195 0.571730 0.000000
C1144 C     C_R   0.034588 0.909384 0.585108 0.000000
N176  N     N_R   0.995748 0.895967 0.575645 0.000000
H697  H     H_    0.987457 0.892904 0.706151 0.000000
H698  H     H_    0.035956 0.963968 0.787280 0.000000
H699  H     H_    0.067147 0.021498 0.787371 0.000000
H700  H     H_    0.051512 0.010432 0.709352 0.000000
H701  H     H_    0.104318 0.008675 0.657328 0.000000
H702  H     H_    0.150558 0.964169 0.639274 0.000000
H703  H     H_    0.119652 0.885061 0.583997 0.000000
H704  H     H_    0.043329 0.849737 0.545849 0.000000
Br89  Br    Br    0.994092 0.804561 0.638009 0.000000
C1145 C     C_R   0.933680 0.772099 0.578609 0.000000
C1146 C     C_R   0.901631 0.781995 0.585314 0.000000
C1147 C     C_R   0.859263 0.757187 0.545942 0.000000
C1148 C     C_R   0.848425 0.722868 0.499652 0.000000
C1149 C     C_R   0.880008 0.714677 0.491388 0.000000
C1150 C     C_R   0.921691 0.740393 0.530070 0.000000
C1151 C     C_R   0.953978 0.737397 0.520489 0.000000
N177  N     N_R   0.976117 0.775513 0.531455 0.000000
C1152 C     C_R   0.017056 0.775828 0.556095 0.000000
C1153 C     C_R   0.053729 0.811731 0.591517 0.000000
C1154 C     C_R   0.093099 0.806509 0.613826 0.000000
C1155 C     C_R   0.094841 0.765843 0.602364 0.000000
C1156 C     C_R   0.057241 0.731420 0.572942 0.000000
C1157 C     C_R   0.018170 0.737484 0.552332 0.000000
N178  N     N_R   0.978227 0.711970 0.531148 0.000000
H705  H     H_    0.910402 0.808061 0.622506 0.000000
H706  H     H_    0.834706 0.762097 0.552926 0.000000
H707  H     H_    0.815466 0.702891 0.470025 0.000000
H708  H     H_    0.872284 0.688575 0.454647 0.000000
H709  H     H_    0.051394 0.843677 0.606241 0.000000
H710  H     H_    0.122449 0.834388 0.641320 0.000000
H711  H     H_    0.125747 0.761739 0.619717 0.000000
H712  H     H_    0.059848 0.701572 0.567980 0.000000
Br90  Br    Br    0.880662 0.568034 0.504111 0.000000
C1158 C     C_R   0.918130 0.544919 0.490762 0.000000
C1159 C     C_R   0.904689 0.518147 0.441473 0.000000
C1160 C     C_R   0.933681 0.503664 0.430864 0.000000
C1161 C     C_R   0.976526 0.519904 0.469827 0.000000
C1162 C     C_R   0.989110 0.549610 0.517998 0.000000
C1163 C     C_R   0.959895 0.559530 0.529502 0.000000
C1164 C     C_R   0.977178 0.599560 0.577499 0.000000
N179  N     N_R   0.990773 0.636231 0.580492 0.000000
C1165 C     C_R   0.027470 0.660212 0.628444 0.000000
C1166 C     C_R   0.058224 0.698801 0.652440 0.000000
C1167 C     C_R   0.088763 0.721244 0.704034 0.000000
C1168 C     C_R   0.088790 0.704660 0.730502 0.000000
C1169 C     C_R   0.060865 0.663615 0.704992 0.000000
C1170 C     C_R   0.031139 0.641775 0.653821 0.000000
N180  N     N_R   0.001258 0.602062 0.622667 0.000000
H713  H     H_    0.871940 0.509632 0.411837 0.000000
H714  H     H_    0.923145 0.480113 0.392166 0.000000
H715  H     H_    0.001218 0.511759 0.463463 0.000000
H716  H     H_    0.021991 0.569652 0.545777 0.000000
H717  H     H_    0.056833 0.713223 0.633007 0.000000
H718  H     H_    0.111582 0.752824 0.724248 0.000000
H719  H     H_    0.111213 0.723989 0.771277 0.000000
H720  H     H_    0.060580 0.650108 0.724908 0.000000
Br91  Br    Br    0.977418 0.649464 0.418713 0.000000
C1171 C     C_R   0.918212 0.613035 0.373646 0.000000
C1172 C     C_R   0.890029 0.625341 0.344657 0.000000
C1173 C     C_R   0.847301 0.599808 0.308695 0.000000
C1174 C     C_R   0.832963 0.561462 0.300870 0.000000
C1175 C     C_R   0.860642 0.549263 0.330625 0.000000
C1176 C     C_R   0.903108 0.575050 0.367751 0.000000
C1177 C     C_R   0.930822 0.563623 0.402280 0.000000
N181  N     N_R   0.951583 0.534250 0.386280 0.000000
C1178 C     C_R   0.992792 0.558107 0.426234 0.000000
C1179 C     C_R   0.028605 0.547027 0.430670 0.000000
C1180 C     C_R   0.067792 0.572505 0.477172 0.000000
C1181 C     C_R   0.069928 0.606989 0.518727 0.000000
C1182 C     C_R   0.033189 0.617042 0.513682 0.000000
C1183 C     C_R   0.995124 0.593393 0.466730 0.000000
N182  N     N_R   0.955775 0.597083 0.454909 0.000000
H721  H     H_    0.901758 0.655549 0.350666 0.000000
H722  H     H_    0.824574 0.609596 0.286646 0.000000
H723  H     H_    0.799406 0.541175 0.272073 0.000000
H724  H     H_    0.848292 0.519875 0.325560 0.000000
H725  H     H_    0.026093 0.519322 0.398621 0.000000
H726  H     H_    0.096513 0.564442 0.481620 0.000000
H727  H     H_    0.100190 0.625231 0.555666 0.000000
H728  H     H_    0.033691 0.640325 0.546424 0.000000
Br92  Br    Br    0.921310 0.882828 0.380338 0.000000
C1184 C     C_R   0.880672 0.853608 0.381636 0.000000
C1185 C     C_R   0.839198 0.855302 0.362994 0.000000
C1186 C     C_R   0.808181 0.827464 0.355635 0.000000
C1187 C     C_R   0.817372 0.795520 0.362795 0.000000
C1188 C     C_R   0.857642 0.792492 0.377777 0.000000
C1189 C     C_R   0.890127 0.823127 0.391370 0.000000
C1190 C     C_R   0.931095 0.815498 0.405092 0.000000
N183  N     N_R   0.950796 0.810749 0.378875 0.000000
C1191 C     C_R   0.982058 0.796338 0.399666 0.000000
C1192 C     C_R   0.015411 0.790821 0.393617 0.000000
C1193 C     C_R   0.048663 0.783057 0.424511 0.000000
C1194 C     C_R   0.045254 0.775131 0.456035 0.000000
C1195 C     C_R   0.010537 0.778905 0.460113 0.000000
C1196 C     C_R   0.981303 0.793158 0.435264 0.000000
N184  N     N_R   0.951255 0.807879 0.443172 0.000000
H729  H     H_    0.828912 0.874881 0.349025 0.000000
H730  H     H_    0.775272 0.826131 0.336410 0.000000
H731  H     H_    0.791757 0.768937 0.348769 0.000000
H732  H     H_    0.862199 0.762230 0.369706 0.000000
H733  H     H_    0.016159 0.792164 0.365581 0.000000
H734  H     H_    0.075708 0.779708 0.420977 0.000000
H735  H     H_    0.069727 0.765937 0.477458 0.000000
H736  H     H_    0.007430 0.772064 0.483399 0.000000
Br93  Br    Br    0.709750 0.594401 0.812607 0.000000
C1197 C     C_R   0.715781 0.547400 0.819997 0.000000
C1198 C     C_R   0.689138 0.504774 0.788091 0.000000
C1199 C     C_R   0.702470 0.477069 0.800812 0.000000
C1200 C     C_R   0.729351 0.492754 0.850560 0.000000
C1201 C     C_R   0.750378 0.536683 0.883762 0.000000
C1202 C     C_R   0.750883 0.558500 0.863955 0.000000
C1203 C     C_R   0.785294 0.597022 0.892575 0.000000
N185  N     N_R   0.809836 0.603208 0.875746 0.000000
C1204 C     C_R   0.827574 0.647462 0.906864 0.000000
C1205 C     C_R   0.853960 0.674493 0.907697 0.000000
C1206 C     C_R   0.866507 0.719045 0.941420 0.000000
C1207 C     C_R   0.854926 0.736320 0.975895 0.000000
C1208 C     C_R   0.830173 0.709096 0.976566 0.000000
C1209 C     C_R   0.814953 0.665002 0.940075 0.000000
N186  N     N_R   0.789271 0.633383 0.933184 0.000000
H737  H     H_    0.663922 0.488774 0.749734 0.000000
H738  H     H_    0.692405 0.443938 0.770740 0.000000
H739  H     H_    0.737927 0.470907 0.861491 0.000000
H740  H     H_    0.771510 0.554464 0.923967 0.000000
H741  H     H_    0.862843 0.662550 0.881147 0.000000
H742  H     H_    0.886309 0.740584 0.941540 0.000000
H743  H     H_    0.866623 0.771126 0.003595 0.000000
H744  H     H_    0.824521 0.722319 0.006280 0.000000
Br94  Br    Br    0.890789 0.728661 0.160007 0.000000
C1210 C     C_R   0.911787 0.720333 0.119903 0.000000
C1211 C     C_R   0.944467 0.753149 0.136523 0.000000
C1212 C     C_R   0.951803 0.753170 0.103280 0.000000
C1213 C     C_R   0.925472 0.719730 0.052985 0.000000
C1214 C     C_R   0.895712 0.684545 0.037757 0.000000
C1215 C     C_R   0.890294 0.683620 0.071767 0.000000
C1216 C     C_R   0.864919 0.645161 0.060905 0.000000
N187  N     N_R   0.884361 0.632747 0.094535 0.000000
C1217 C     C_R   0.850255 0.617720 0.092484 0.000000
C1218 C     C_R   0.852214 0.613809 0.128321 0.000000
C1219 C     C_R   0.813751 0.599710 0.121462 0.000000
C1220 C     C_R   0.775238 0.592697 0.081142 0.000000
C1221 C     C_R   0.774771 0.604070 0.050328 0.000000
C1222 C     C_R   0.812705 0.616073 0.056408 0.000000
N188  N     N_R   0.819519 0.631847 0.033552 0.000000
H745  H     H_    0.964416 0.778678 0.175968 0.000000
H746  H     H_    0.977161 0.779551 0.116322 0.000000
H747  H     H_    0.930482 0.719295 0.025995 0.000000
H748  H     H_    0.878344 0.657135 0.999394 0.000000
H749  H     H_    0.882887 0.619717 0.159676 0.000000
H750  H     H_    0.813216 0.591902 0.145966 0.000000
H751  H     H_    0.745843 0.581137 0.076480 0.000000
H752  H     H_    0.745743 0.602994 0.021723 0.000000
Br95  Br    Br    0.996787 0.689037 0.324152 0.000000
C1223 C     C_R   0.938201 0.676558 0.277863 0.000000
C1224 C     C_R   0.909660 0.648128 0.272817 0.000000
C1225 C     C_R   0.867280 0.645223 0.250728 0.000000
C1226 C     C_R   0.853923 0.671546 0.235025 0.000000
C1227 C     C_R   0.881523 0.696477 0.234823 0.000000
C1228 C     C_R   0.923784 0.698580 0.255243 0.000000
C1229 C     C_R   0.951907 0.722901 0.251515 0.000000
N189  N     N_R   0.966726 0.768555 0.279647 0.000000
C1230 C     C_R   0.995553 0.774952 0.269445 0.000000
C1231 C     C_R   0.024294 0.813500 0.291378 0.000000
C1232 C     C_R   0.050549 0.813304 0.274408 0.000000
C1233 C     C_R   0.044602 0.775405 0.232955 0.000000
C1234 C     C_R   0.014594 0.737051 0.210657 0.000000
C1235 C     C_R   0.993718 0.736708 0.232816 0.000000
N190  N     N_R   0.965897 0.702130 0.219091 0.000000
H753  H     H_    0.921195 0.629499 0.288296 0.000000
H754  H     H_    0.844382 0.622671 0.245779 0.000000
H755  H     H_    0.820615 0.669390 0.219353 0.000000
H756  H     H_    0.870253 0.714167 0.218274 0.000000
H757  H     H_    0.025498 0.842972 0.320240 0.000000
H758  H     H_    0.073604 0.843088 0.290611 0.000000
H759  H     H_    0.062196 0.776136 0.216764 0.000000
H760  H     H_    0.006063 0.709371 0.175016 0.000000
Br96  Br    Br    0.926419 0.358993 0.321956 0.000000
C1236 C     C_R   0.908431 0.387614 0.366354 0.000000
C1237 C     C_R   0.869504 0.378561 0.360254 0.000000
C1238 C     C_R   0.862358 0.407736 0.395630 0.000000
C1239 C     C_R   0.896857 0.438695 0.442667 0.000000
C1240 C     C_R   0.936819 0.441714 0.451212 0.000000
C1241 C     C_R   0.941065 0.420954 0.410614 0.000000
C1242 C     C_R   0.979459 0.428393 0.410812 0.000000
N191  N     N_R   0.009721 0.410832 0.428666 0.000000
C1243 C     C_R   0.036313 0.417660 0.415811 0.000000
C1244 C     C_R   0.074610 0.409787 0.427930 0.000000
C1245 C     C_R   0.096848 0.418658 0.410557 0.000000
C1246 C     C_R   0.080294 0.434720 0.381216 0.000000
C1247 C     C_R   0.041845 0.443047 0.369911 0.000000
C1248 C     C_R   0.021194 0.435972 0.389209 0.000000
N192  N     N_R   0.984274 0.443240 0.383848 0.000000
H761  H     H_    0.843694 0.349596 0.328418 0.000000
H762  H     H_    0.830652 0.402818 0.388869 0.000000
H763  H     H_    0.892593 0.460718 0.472155 0.000000
H764  H     H_    0.962232 0.467817 0.487709 0.000000
H765  H     H_    0.086963 0.397039 0.450344 0.000000
H766  H     H_    0.127047 0.412596 0.419389 0.000000
H767  H     H_    0.097968 0.440989 0.367621 0.000000
H768  H     H_    0.028370 0.455108 0.347162 0.000000

loop_
_geom_bond_atom_site_label_1
_geom_bond_atom_site_label_2
_geom_bond_distance
_geom_bond_site_symmetry_2
_ccdc_geom_bond_type
Zn1   N1    2.139 .      S
Zn1   N15   2.198 1_545  S
Zn1   N21   2.239 .      S
Zn1   N41   2.193 .      S
Zn2   N2    2.174 .      S
Zn2   N5    2.185 .      S
Zn2   N50   2.227 1_545  S
Zn2   N122  2.231 .      S
Zn3   N4    2.351 .      S
Zn3   N6    2.210 .      S
Zn3   N9    2.227 .      S
Zn3   N43   2.222 .      S
Zn4   N7    2.109 .      S
Zn4   N10   2.187 .      S
Zn4   N12   2.206 .      S
Zn4   N130  2.238 .      S
Zn5   N13   2.266 .      S
Zn5   N16   2.230 .      S
Zn5   N124  2.331 .      S
Zn5   N139  2.258 .      S
Zn6   N17   2.139 .      S
Zn6   N20   2.197 .      S
Zn6   N22   2.205 .      S
Zn6   N141  2.215 1_545  S
Zn7   N24   2.235 .      S
Zn7   N26   2.233 .      S
Zn7   N144  2.254 .      S
Zn7   N151  2.313 .      S
Zn8   N28   2.249 .      S
Zn8   N29   2.204 .      S
Zn8   N113  2.313 .      S
Zn8   N125  2.324 .      S
Zn9   N31   2.225 .      S
Zn9   N34   2.220 .      S
Zn9   N110  2.177 .      S
Zn9   N127  2.265 .      S
Zn10  N35   2.272 .      S
Zn10  N38   2.146 .      S
Zn10  N39   2.226 .      S
Zn10  N111  2.109 .      S
Zn11  N42   2.262 .      S
Zn11  N44   2.190 .      S
Zn11  N132  2.281 .      S
Zn11  N137  2.215 .      S
Zn12  N45   2.171 1_556  S
Zn12  N63   2.316 .      S
Zn12  N186  2.104 .      S
Zn12  N188  2.195 1_556  S
Zn13  N48   2.231 .      S
Zn13  N119  2.336 .      S
Zn13  N183  2.267 .      S
Zn13  N189  2.202 .      S
Zn14  N14   2.393 .      S
Zn14  N46   2.228 .      S
Zn14  N47   2.302 .      S
Zn14  N49   2.258 .      S
Zn15  N3    2.340 1_455  S
Zn15  N61   2.148 .      S
Zn15  N118  2.184 .      S
Zn15  N191  2.152 .      S
Zn16  N51   2.273 .      S
Zn16  N54   2.119 .      S
Zn16  N55   2.152 .      S
Zn16  N134  2.126 .      S
Zn17  N58   2.173 .      S
Zn17  N59   2.244 .      S
Zn17  N136  2.129 .      S
Zn17  N153  2.234 .      S
Zn18  N30   2.191 .      S
Zn18  N60   2.262 1_455  S
Zn18  N62   2.126 .      S
Zn18  N180  2.195 .      S
Zn19  N33   2.254 .      S
Zn19  N40   2.201 .      S
Zn19  N56   2.142 .      S
Zn19  N64   2.321 .      S
Zn20  N65   2.151 .      S
Zn20  N67   2.199 .      S
Zn20  N69   2.185 .      S
Zn20  N71   2.252 .      S
Zn21  N66   2.280 1_556  S
Zn21  N73   2.122 .      S
Zn21  N76   2.216 1_556  S
Zn21  N77   2.215 .      S
Zn22  N68   2.227 .      S
Zn22  N79   2.222 .      S
Zn22  N82   2.261 1_554  S
Zn22  N83   2.228 .      S
Zn23  N70   2.200 .      S
Zn23  N86   2.132 .      S
Zn23  N87   2.188 .      S
Zn23  N89   2.282 .      S
Zn24  N72   2.232 .      S
Zn24  N91   2.149 .      S
Zn24  N94   2.200 .      S
Zn24  N96   2.145 .      S
Zn25  N78   2.170 .      S
Zn25  N81   2.236 .      S
Zn25  N98   2.236 .      S
Zn25  N100  2.128 .      S
Zn26  N84   2.237 .      S
Zn26  N102  2.304 1_454  S
Zn26  N103  2.226 1_554  S
Zn26  N105  2.294 .      S
Zn27  N74   2.269 .      S
Zn27  N107  2.223 .      S
Zn27  N109  2.303 .      S
Zn27  N112  2.155 .      S
Zn28  N80   2.219 .      S
Zn28  N93   2.285 .      S
Zn28  N114  2.219 1_554  S
Zn28  N115  2.212 .      S
Zn29  N27   2.171 .      S
Zn29  N32   2.246 .      S
Zn29  N117  2.205 .      S
Zn29  N168  2.202 .      S
Zn30  N120  2.221 1_545  S
Zn30  N121  2.170 1_455  S
Zn30  N170  2.218 .      S
Zn30  N174  2.089 .      S
Zn31  N92   2.318 1_556  S
Zn31  N123  2.231 1_556  S
Zn31  N126  2.350 .      S
Zn31  N128  2.290 .      S
Zn32  N75   2.205 .      S
Zn32  N85   2.164 .      S
Zn32  N129  2.286 .      S
Zn32  N131  2.224 .      S
Zn33  N88   2.230 .      S
Zn33  N133  2.195 .      S
Zn33  N135  2.180 .      S
Zn33  N138  2.210 .      S
Zn34  N95   2.211 .      S
Zn34  N140  2.159 .      S
Zn34  N142  2.169 .      S
Zn34  N143  2.269 .      S
Zn35  N101  2.223 .      S
Zn35  N145  2.198 .      S
Zn35  N148  2.127 .      S
Zn35  N149  2.136 .      S
Zn36  N90   2.176 .      S
Zn36  N152  2.228 .      S
Zn36  N154  2.195 .      S
Zn36  N156  2.117 .      S
Zn37  N104  2.136 1_554  S
Zn37  N116  2.142 .      S
Zn37  N158  2.264 1_454  S
Zn37  N159  2.235 .      S
Zn38  N106  2.194 .      S
Zn38  N162  2.271 .      S
Zn38  N163  2.244 .      S
Zn38  N166  2.207 .      S
Zn39  N97   2.258 .      S
Zn39  N108  2.275 .      S
Zn39  N167  2.286 .      S
Zn39  N169  2.312 .      S
Zn40  N99   2.212 .      S
Zn40  N171  2.245 1_455  S
Zn40  N173  2.155 .      S
Zn40  N175  2.240 1_545  S
Zn41  N19   2.188 .      S
Zn41  N37   2.201 .      S
Zn41  N52   2.316 .      S
Zn41  N150  2.233 .      S
Zn42  N155  2.283 .      S
Zn42  N178  2.264 .      S
Zn42  N179  2.277 .      S
Zn42  N182  2.263 .      S
Zn43  N25   2.225 .      S
Zn43  N176  2.311 .      S
Zn43  N177  2.296 .      S
Zn43  N184  2.282 .      S
Zn44  N53   2.232 .      S
Zn44  N57   2.170 .      S
Zn44  N157  2.322 .      S
Zn44  N185  2.210 .      S
Zn45  N160  2.188 .      S
Zn45  N164  2.243 .      S
Zn45  N187  2.211 .      S
Zn45  N190  2.184 .      S
Zn46  N11   2.280 .      S
Zn46  N165  2.144 .      S
Zn46  N181  2.275 .      S
Zn46  N192  2.246 .      S
Zn47  N18   2.184 .      S
Zn47  N23   2.253 1_545  S
Zn47  N146  2.229 .      S
Zn47  N172  2.280 .      S
Zn48  N8    2.165 1_556  S
Zn48  N36   2.277 .      S
Zn48  N147  2.139 .      S
Zn48  N161  2.300 1_556  S
Br1   C1    1.846 .      S
C2    H1    1.058 .      S
C3    H2    1.080 .      S
C4    H3    1.080 .      S
C5    H4    1.066 .      S
C6    C7    1.483 .      S
C9    H5    1.076 .      S
C10   H6    1.064 .      S
C11   H7    1.073 .      S
C12   H8    1.074 .      S
Br2   C14   1.872 .      S
C15   H9    1.080 .      S
C16   H10   1.080 .      S
C17   H11   1.070 .      S
C18   H12   1.078 .      S
C19   C20   1.469 .      S
N3    Zn15  2.340 1_655  S
C22   H13   1.062 .      S
C23   H14   1.073 .      S
C24   H15   1.075 .      S
C25   H16   1.072 .      S
Br3   C27   1.901 .      S
C28   H17   1.081 1_545  S
C29   H18   1.081 1_545  S
C30   H19   1.077 .      S
C31   H20   1.064 .      S
C32   C33   1.481 .      S
C35   H21   1.079 .      S
C36   H22   1.081 .      S
C37   H23   1.081 .      S
C38   H24   1.081 .      S
H17   C28   1.081 1_565  S
H18   C29   1.081 1_565  S
Br4   C40   1.905 1_556  S
C40   Br4   1.905 1_554  S
C41   H25   1.069 1_554  S
C42   H26   1.080 .      S
C43   H27   1.081 .      S
C44   H28   1.074 .      S
C45   C46   1.436 .      S
C48   H29   1.055 .      S
C49   H30   1.080 .      S
C50   H31   1.081 .      S
C51   H32   1.066 1_554  S
N8    Zn48  2.165 1_554  S
H25   C41   1.069 1_556  S
H32   C51   1.066 1_556  S
Br5   C53   1.843 .      S
C54   H33   1.062 .      S
C55   H34   1.081 .      S
C56   H35   1.081 .      S
C57   H36   1.079 .      S
C58   C59   1.462 .      S
C61   H37   1.073 .      S
C62   H38   1.081 .      S
C63   H39   1.081 .      S
C64   H40   1.078 .      S
Br6   C66   1.914 .      S
C67   H41   1.074 .      S
C68   H42   1.077 .      S
C69   H43   1.081 .      S
C70   H44   1.066 .      S
C71   C72   1.439 .      S
C74   H45   1.069 .      S
C75   H46   1.046 .      S
C76   H47   1.080 .      S
C77   H48   1.079 .      S
Br7   C79   1.873 .      S
C80   H49   1.081 .      S
C81   H50   1.081 .      S
C82   H51   1.079 .      S
C83   H52   1.064 .      S
C84   C85   1.494 .      S
C87   H53   1.078 .      S
C88   H54   1.080 .      S
C89   H55   1.072 .      S
C90   H56   1.060 .      S
Br8   C92   1.843 .      S
C93   H57   1.069 .      S
C94   H58   1.071 .      S
C95   H59   1.061 .      S
C96   H60   1.070 .      S
C97   C98   1.450 .      S
N15   Zn1   2.198 1_565  S
C100  H61   1.072 1_565  S
C101  H62   1.079 .      S
C102  H63   1.081 .      S
C103  H64   1.075 .      S
H61   C100  1.072 1_545  S
Br9   C105  1.804 .      S
C106  H65   1.080 .      S
C107  H66   1.081 .      S
C108  H67   1.065 .      S
C109  H68   1.061 .      S
C110  C111  1.496 .      S
C113  H69   1.035 .      S
C114  H70   1.081 .      S
C115  H71   1.078 .      S
C116  H72   1.074 1_565  S
H72   C116  1.074 1_545  S
Br10  C118  1.909 .      S
C119  H73   1.081 .      S
C120  H74   1.081 .      S
C121  H75   1.081 .      S
C122  H76   1.063 .      S
C123  C124  1.472 .      S
C126  H77   1.062 .      S
C127  H78   1.075 .      S
C128  H79   1.081 1_545  S
C129  H80   1.050 .      S
H79   C128  1.081 1_565  S
Br11  C131  1.845 1_565  S
C131  Br11  1.845 1_545  S
C132  H81   1.067 .      S
C133  H82   1.077 .      S
C134  H83   1.078 .      S
C135  H84   1.071 .      S
C136  C137  1.462 .      S
C139  H85   1.070 .      S
C140  H86   1.081 .      S
C141  H87   1.080 .      S
C142  H88   1.079 .      S
Br12  C144  1.898 .      S
C145  H89   1.078 .      S
C146  H90   1.081 .      S
C147  H91   1.081 .      S
C148  H92   1.081 .      S
C149  C150  1.461 .      S
N23   Zn47  2.253 1_565  S
C152  H93   1.052 1_565  S
C153  H94   1.077 .      S
C154  H95   1.077 .      S
C155  H96   1.047 .      S
H93   C152  1.052 1_545  S
Br13  C157  1.841 .      S
C158  H97   1.077 .      S
C159  H98   1.060 .      S
C160  H99   1.062 .      S
C161  H100  1.081 .      S
C162  C163  1.461 .      S
C165  H101  1.079 .      S
C166  H102  1.068 .      S
C167  H103  1.081 .      S
C168  H104  1.044 .      S
Br14  C170  1.876 .      S
C171  H105  1.081 .      S
C172  H106  1.078 .      S
C173  H107  1.073 .      S
C174  H108  1.077 .      S
C175  C176  1.492 .      S
C178  H109  1.074 .      S
C179  H110  1.076 .      S
C180  H111  1.079 .      S
C181  H112  1.066 .      S
Br15  C183  1.914 .      S
C184  H113  1.081 .      S
C185  H114  1.081 .      S
C186  H115  1.081 .      S
C187  H116  1.068 .      S
C188  C189  1.474 .      S
C191  H117  1.042 .      S
C192  H118  1.070 .      S
C193  H119  1.077 .      S
C194  H120  1.057 .      S
Br16  C196  1.862 .      S
C197  H121  1.081 .      S
C198  H122  1.081 .      S
C199  H123  1.081 .      S
C200  H124  1.080 .      S
C201  C202  1.469 .      S
C204  H125  1.066 .      S
C205  H126  1.080 .      S
C206  H127  1.081 .      S
C207  H128  1.077 .      S
Br17  C209  1.872 .      S
C210  H129  1.061 .      S
C211  H130  1.078 .      S
C212  H131  1.081 .      S
C213  H132  1.080 .      S
C214  C215  1.435 .      S
C217  H133  1.071 .      S
C218  H134  1.081 .      S
C219  H135  1.081 .      S
C220  H136  1.080 .      S
Br18  C222  1.868 .      S
C223  H137  1.081 .      S
C224  H138  1.081 .      S
C225  H139  1.077 .      S
C226  H140  1.065 .      S
C227  C228  1.480 .      S
C230  H141  1.067 .      S
C231  H142  1.076 .      S
C232  H143  1.080 .      S
C233  H144  1.067 1_556  S
H144  C233  1.067 1_554  S
Br19  C235  1.909 .      S
C236  H145  1.081 .      S
C237  H146  1.078 .      S
C238  H147  1.062 .      S
C239  H148  1.069 .      S
C240  C241  1.444 .      S
C243  H149  1.068 .      S
C244  H150  1.081 .      S
C245  H151  1.081 .      S
C246  H152  1.073 .      S
Br20  C248  1.820 .      S
C249  H153  1.081 .      S
C250  H154  1.073 .      S
C251  H155  1.066 .      S
C252  H156  1.072 .      S
C253  C254  1.508 .      S
C256  H157  1.072 .      S
C257  H158  1.071 .      S
C258  H159  1.068 .      S
C259  H160  1.070 .      S
Br21  C261  1.879 .      S
C262  H161  1.081 1_545  S
C263  H162  1.081 1_545  S
C264  H163  1.080 .      S
C265  H164  1.081 .      S
C266  C267  1.474 .      S
C269  H165  1.072 .      S
C270  H166  1.071 .      S
C271  H167  1.073 .      S
C272  H168  1.042 .      S
H161  C262  1.081 1_565  S
H162  C263  1.081 1_565  S
Br22  C274  1.888 .      S
C275  H169  1.081 .      S
C276  H170  1.076 .      S
C277  H171  1.062 .      S
C278  H172  1.081 .      S
C279  C280  1.466 .      S
C282  H173  1.060 .      S
C283  H174  1.079 .      S
C284  H175  1.079 .      S
C285  H176  1.074 .      S
Br23  C287  1.880 1_556  S
C287  Br23  1.880 1_554  S
C288  H177  1.077 .      S
C289  H178  1.081 .      S
C290  H179  1.054 .      S
C291  H180  1.068 .      S
C292  C293  1.438 .      S
N45   Zn12  2.171 1_554  S
C295  H181  1.075 .      S
C296  H182  1.081 .      S
C297  H183  1.081 .      S
C298  H184  1.068 .      S
Br24  C300  1.819 .      S
C301  H185  1.081 .      S
C302  H186  1.081 .      S
C303  H187  1.068 1_655  S
C304  H188  1.066 .      S
C305  C306  1.519 .      S
C308  H189  1.068 .      S
C309  H190  1.074 .      S
C310  H191  1.080 .      S
C311  H192  1.073 .      S
H187  C303  1.068 1_455  S
Br25  C313  1.867 .      S
C314  H193  1.069 .      S
C315  H194  1.081 .      S
C316  H195  1.081 .      S
C317  H196  1.079 .      S
C318  C319  1.459 .      S
C321  H197  1.065 .      S
C322  H198  1.078 .      S
C323  H199  1.073 .      S
C324  H200  1.066 .      S
N50   Zn2   2.227 1_565  S
Br26  C326  1.891 .      S
C327  H201  1.076 .      S
C328  H202  1.070 .      S
C329  H203  1.060 .      S
C330  H204  1.070 .      S
C331  C332  1.422 .      S
C334  H205  1.080 .      S
C335  H206  1.081 .      S
C336  H207  1.080 .      S
C337  H208  1.066 .      S
Br27  C339  1.934 .      S
C340  H209  1.081 .      S
C341  H210  1.077 .      S
C342  H211  1.050 .      S
C343  H212  1.069 .      S
C344  C345  1.517 .      S
C347  H213  1.075 .      S
C348  H214  1.080 .      S
C349  H215  1.080 .      S
C350  H216  1.073 .      S
Br28  C352  1.914 .      S
C353  H217  1.074 .      S
C354  H218  1.044 .      S
C355  H219  1.060 .      S
C356  H220  1.056 .      S
C357  C358  1.424 .      S
C360  H221  1.081 .      S
C361  H222  1.081 .      S
C362  H223  1.081 .      S
C363  H224  1.070 .      S
Br29  C365  1.906 .      S
C366  H225  1.077 .      S
C367  H226  1.075 .      S
C368  H227  1.079 .      S
C369  H228  1.071 .      S
C370  C371  1.457 .      S
C373  H229  1.066 .      S
C374  H230  1.081 .      S
C375  H231  1.081 .      S
C376  H232  1.061 .      S
Br30  C378  1.890 .      S
C379  H233  1.061 .      S
C380  H234  1.073 .      S
C381  H235  1.081 1_655  S
C382  H236  1.074 .      S
C383  C384  1.414 .      S
C386  H237  1.073 .      S
C387  H238  1.079 .      S
C388  H239  1.078 .      S
C389  H240  1.075 .      S
N60   Zn18  2.262 1_655  S
H235  C381  1.081 1_455  S
Br31  C391  1.903 .      S
C392  H241  1.063 .      S
C393  H242  1.081 .      S
C394  H243  1.076 1_655  S
C395  H244  1.077 .      S
C396  C397  1.450 .      S
C399  H245  1.062 .      S
C400  H246  1.081 .      S
C401  H247  1.079 .      S
C402  H248  1.069 .      S
H243  C394  1.076 1_455  S
Br32  C404  1.861 .      S
C405  H249  1.073 .      S
C406  H250  1.081 .      S
C407  H251  1.081 1_556  S
C408  H252  1.061 .      S
C409  C410  1.488 .      S
C412  H253  1.053 .      S
C413  H254  1.081 .      S
C414  H255  1.081 .      S
C415  H256  1.065 .      S
H251  C407  1.081 1_554  S
Br33  C417  1.834 1_556  S
C417  Br33  1.834 1_554  S
C418  H257  1.075 .      S
C419  H258  1.081 .      S
C420  H259  1.075 .      S
C421  H260  1.065 .      S
C422  C423  1.522 .      S
C425  H261  1.059 .      S
C426  H262  1.081 .      S
C427  H263  1.080 .      S
C428  H264  1.031 .      S
N66   Zn21  2.280 1_554  S
Br34  C430  1.851 .      S
C431  H265  1.079 1_554  S
C432  H266  1.078 .      S
C433  H267  1.070 .      S
C434  H268  1.038 .      S
C435  C436  1.462 .      S
C438  H269  1.068 .      S
C439  H270  1.081 .      S
C440  H271  1.081 .      S
C441  H272  1.065 .      S
H265  C431  1.079 1_556  S
Br35  C443  1.882 .      S
C444  H273  1.070 .      S
C445  H274  1.081 .      S
C446  H275  1.079 .      S
C447  H276  1.070 .      S
C448  C449  1.477 .      S
C451  H277  1.079 .      S
C452  H278  1.081 .      S
C453  H279  1.081 .      S
C454  H280  1.081 .      S
Br36  C456  1.899 .      S
C457  H281  1.081 .      S
C458  H282  1.081 .      S
C459  H283  1.080 .      S
C460  H284  1.060 .      S
C461  C462  1.502 .      S
C464  H285  1.045 .      S
C465  H286  1.071 .      S
C466  H287  1.078 .      S
C467  H288  1.066 .      S
Br37  C469  1.868 .      S
C470  H289  1.081 .      S
C471  H290  1.081 .      S
C472  H291  1.076 .      S
C473  H292  1.070 .      S
C474  C475  1.479 .      S
C477  H293  1.079 .      S
C478  H294  1.076 .      S
C479  H295  1.076 .      S
C480  H296  1.065 .      S
Br38  C482  1.873 1_554  S
C482  Br38  1.873 1_556  S
C483  H297  1.075 .      S
C484  H298  1.081 .      S
C485  H299  1.081 .      S
C486  H300  1.075 .      S
C487  C488  1.482 1_556  S
C488  C487  1.482 1_554  S
C490  H301  1.052 .      S
C491  H302  1.080 .      S
C492  H303  1.081 .      S
C493  H304  1.059 .      S
N76   Zn21  2.216 1_554  S
Br39  C495  1.889 1_554  S
C495  Br39  1.889 1_556  S
C496  H305  1.061 .      S
C497  H306  1.069 .      S
C498  H307  1.067 .      S
C499  H308  1.077 .      S
C500  C501  1.375 .      S
C503  H309  1.076 .      S
C504  H310  1.081 .      S
C505  H311  1.079 .      S
C506  H312  1.071 .      S
Br40  C508  1.854 .      S
C509  H313  1.081 .      S
C510  H314  1.079 .      S
C511  H315  1.068 .      S
C512  H316  1.072 1_556  S
C513  C514  1.485 .      S
C516  H317  1.057 .      S
C517  H318  1.077 .      S
C518  H319  1.080 .      S
C519  H320  1.057 .      S
H316  C512  1.072 1_554  S
Br41  C521  1.852 .      S
C522  H321  1.081 .      S
C523  H322  1.081 .      S
C524  H323  1.081 .      S
C525  H324  1.067 .      S
C526  C527  1.505 .      S
C529  H325  1.055 .      S
C530  H326  1.036 .      S
C531  H327  1.073 .      S
C532  H328  1.027 .      S
N82   Zn22  2.261 1_556  S
Br42  C534  1.876 .      S
C535  H329  1.079 .      S
C536  H330  1.077 .      S
C537  H331  1.079 .      S
C538  H332  1.081 1_556  S
C539  C540  1.479 1_556  S
C540  C539  1.479 1_554  S
C542  H333  1.061 .      S
C543  H334  1.081 .      S
C544  H335  1.074 .      S
C545  H336  1.069 .      S
H332  C538  1.081 1_554  S
Br43  C547  1.900 .      S
C548  H337  1.081 .      S
C549  H338  1.036 .      S
C550  H339  1.075 .      S
C551  H340  1.079 .      S
C552  C553  1.421 .      S
C555  H341  1.066 .      S
C556  H342  1.081 .      S
C557  H343  1.081 .      S
C558  H344  1.080 .      S
Br44  C560  1.809 .      S
C561  H345  1.079 .      S
C562  H346  1.071 .      S
C563  H347  1.067 .      S
C564  H348  1.025 .      S
C565  C566  1.523 .      S
C568  H349  1.050 .      S
C569  H350  1.081 .      S
C570  H351  1.081 .      S
C571  H352  1.044 .      S
Br45  C573  1.873 .      S
C574  H353  1.081 .      S
C575  H354  1.073 .      S
C576  H355  1.079 .      S
C577  H356  1.077 .      S
C578  C579  1.457 .      S
C581  H357  1.051 .      S
C582  H358  1.081 .      S
C583  H359  1.080 .      S
C584  H360  1.074 .      S
Br46  C586  1.850 .      S
C587  H361  1.081 .      S
C588  H362  1.072 .      S
C589  H363  1.070 .      S
C590  H364  1.072 .      S
C591  C592  1.452 .      S
C594  H365  1.066 .      S
C595  H366  1.068 .      S
C596  H367  1.074 .      S
C597  H368  1.059 .      S
N92   Zn31  2.318 1_554  S
Br47  C599  1.900 1_554  S
C599  Br47  1.900 1_556  S
C600  H369  1.062 .      S
C601  H370  1.076 .      S
C602  H371  1.066 .      S
C603  H372  1.075 .      S
C604  C605  1.417 .      S
C607  H373  1.068 .      S
C608  H374  1.081 .      S
C609  H375  1.076 .      S
C610  H376  1.078 .      S
Br48  C612  1.903 .      S
C613  H377  1.081 .      S
C614  H378  1.081 .      S
C615  H379  1.081 .      S
C616  H380  1.080 .      S
C617  C618  1.461 .      S
C620  H381  1.037 .      S
C621  H382  1.081 .      S
C622  H383  1.081 .      S
C623  H384  1.053 .      S
Br49  C625  1.844 .      S
C626  H385  1.081 .      S
C627  H386  1.080 .      S
C628  H387  1.068 .      S
C629  H388  1.059 .      S
C630  C631  1.484 .      S
C633  H389  1.077 .      S
C634  H390  1.081 .      S
C635  H391  1.079 .      S
C636  H392  1.076 .      S
Br50  C638  1.901 .      S
C639  H393  1.081 .      S
C640  H394  1.081 .      S
C641  H395  1.077 .      S
C642  H396  1.076 .      S
C643  C644  1.454 .      S
C646  H397  1.055 .      S
C647  H398  1.079 .      S
C648  H399  1.074 .      S
C649  H400  1.055 .      S
Br51  C651  1.895 .      S
C652  H401  1.080 .      S
C653  H402  1.080 .      S
C654  H403  1.071 .      S
C655  H404  1.071 .      S
C656  C657  1.444 .      S
C659  H405  1.079 .      S
C660  H406  1.081 .      S
C661  H407  1.081 1_656  S
C662  H408  1.055 1_656  S
N102  Zn26  2.304 1_656  S
H407  C661  1.081 1_454  S
H408  C662  1.055 1_454  S
Br52  C664  1.876 .      S
C665  H409  1.068 .      S
C666  H410  1.081 .      S
C667  H411  1.057 .      S
C668  H412  1.066 .      S
C669  C670  1.423 .      S
N103  Zn26  2.226 1_556  S
C672  H413  1.074 .      S
C673  H414  1.079 .      S
C674  H415  1.081 .      S
C675  H416  1.074 .      S
N104  Zn37  2.136 1_556  S
Br53  C677  1.899 .      S
C678  H417  1.081 .      S
C679  H418  1.081 .      S
C680  H419  1.076 .      S
C681  H420  1.060 .      S
C682  C683  1.502 .      S
C685  H421  1.078 .      S
C686  H422  1.081 .      S
C687  H423  1.080 .      S
C688  H424  1.060 1_455  S
H424  C688  1.060 1_655  S
Br54  C690  1.833 .      S
C691  H425  1.071 .      S
C692  H426  1.076 .      S
C693  H427  1.046 .      S
C694  H428  1.066 .      S
C695  C696  1.446 .      S
C698  H429  1.060 .      S
C699  H430  1.081 .      S
C700  H431  1.081 .      S
C701  H432  1.059 .      S
Br55  C703  1.885 .      S
C704  H433  1.081 .      S
C705  H434  1.080 .      S
C706  H435  1.073 .      S
C707  H436  1.080 .      S
C708  C709  1.453 .      S
C711  H437  1.025 .      S
C712  H438  1.081 .      S
C713  H439  1.080 .      S
C714  H440  1.072 .      S
Br56  C716  1.878 .      S
C717  H441  1.080 .      S
C718  H442  1.069 .      S
C719  H443  1.061 .      S
C720  H444  1.053 .      S
C721  C722  1.462 .      S
C724  H445  1.075 .      S
C725  H446  1.081 .      S
C726  H447  1.081 .      S
C727  H448  1.079 .      S
Br57  C729  1.869 .      S
C730  H449  1.081 .      S
C731  H450  1.081 .      S
C732  H451  1.080 .      S
C733  H452  1.067 1_556  S
C734  C735  1.511 .      S
C737  H453  1.036 .      S
C738  H454  1.069 .      S
C739  H455  1.074 .      S
C740  H456  1.067 .      S
N114  Zn28  2.219 1_556  S
H452  C733  1.067 1_554  S
Br58  C742  1.887 .      S
C743  H457  1.080 .      S
C744  H458  1.077 .      S
C745  H459  1.071 .      S
C746  H460  1.075 .      S
C747  C748  1.463 .      S
C750  H461  1.066 .      S
C751  H462  1.080 .      S
C752  H463  1.081 .      S
C753  H464  1.079 .      S
Br59  C755  1.907 .      S
C756  H465  1.080 .      S
C757  H466  1.081 .      S
C758  H467  1.081 .      S
C759  H468  1.081 .      S
C760  C761  1.445 .      S
C763  H469  1.062 .      S
C764  H470  1.060 .      S
C765  H471  1.081 1_455  S
C766  H472  1.059 1_455  S
H471  C765  1.081 1_655  S
H472  C766  1.059 1_655  S
Br60  C768  1.897 .      S
C769  H473  1.081 .      S
C770  H474  1.081 .      S
C771  H475  1.081 1_565  S
C772  H476  1.049 .      S
C773  C774  1.515 1_455  S
C774  C773  1.515 1_655  S
C776  H477  1.063 .      S
C777  H478  1.081 .      S
C778  H479  1.081 .      S
C779  H480  1.076 1_565  S
N120  Zn30  2.221 1_565  S
H475  C771  1.081 1_545  S
H480  C779  1.076 1_545  S
Br61  C781  1.882 .      S
C782  H481  1.075 .      S
C783  H482  1.080 .      S
C784  H483  1.080 .      S
C785  H484  1.074 .      S
C786  C787  1.457 .      S
N121  Zn30  2.170 1_655  S
C789  H485  1.071 .      S
C790  H486  1.066 .      S
C791  H487  1.059 .      S
C792  H488  1.060 .      S
Br62  C794  1.898 .      S
C795  H489  1.081 .      S
C796  H490  1.067 1_554  S
C797  H491  1.075 .      S
C798  H492  1.081 1_554  S
C799  C800  1.441 .      S
N123  Zn31  2.231 1_554  S
C802  H493  1.073 1_554  S
C803  H494  1.081 1_554  S
C804  H495  1.081 .      S
C805  H496  1.047 .      S
H490  C796  1.067 1_556  S
H492  C798  1.081 1_556  S
H493  C802  1.073 1_556  S
H494  C803  1.081 1_556  S
Br63  C807  1.809 .      S
C808  H497  1.062 .      S
C809  H498  1.070 .      S
C810  H499  1.059 .      S
C811  H500  1.044 .      S
C812  C813  1.410 .      S
C815  H501  1.069 .      S
C816  H502  1.079 .      S
C817  H503  1.081 .      S
C818  H504  1.072 .      S
Br64  C820  1.893 .      S
C821  H505  1.070 .      S
C822  H506  1.072 1_556  S
C823  H507  1.080 1_556  S
C824  H508  1.066 .      S
C825  C826  1.437 .      S
C828  H509  1.079 .      S
C829  H510  1.081 .      S
C830  H511  1.081 .      S
C831  H512  1.074 .      S
H506  C822  1.072 1_554  S
H507  C823  1.080 1_554  S
Br65  C833  1.905 .      S
C834  H513  1.070 .      S
C835  H514  1.081 1_554  S
C836  H515  1.080 .      S
C837  H516  1.077 .      S
C838  C839  1.443 .      S
C841  H517  1.075 .      S
C842  H518  1.078 .      S
C843  H519  1.081 .      S
C844  H520  1.071 .      S
H514  C835  1.081 1_556  S
Br66  C846  1.876 .      S
C847  H521  1.081 .      S
C848  H522  1.081 1_554  S
C849  H523  1.078 .      S
C850  H524  1.059 .      S
C851  C852  1.505 .      S
C854  H525  1.075 .      S
C855  H526  1.081 .      S
C856  H527  1.081 .      S
C857  H528  1.070 .      S
H522  C848  1.081 1_556  S
Br67  C859  1.906 .      S
C860  H529  1.073 .      S
C861  H530  1.074 .      S
C862  H531  1.081 .      S
C863  H532  1.071 .      S
C864  C865  1.449 .      S
C867  H533  1.067 .      S
C868  H534  1.081 .      S
C869  H535  1.077 .      S
C870  H536  1.061 .      S
Br68  C872  1.879 .      S
C873  H537  1.080 .      S
C874  H538  1.080 .      S
C875  H539  1.069 .      S
C876  H540  1.080 .      S
C877  C878  1.435 .      S
C880  H541  1.047 .      S
C881  H542  1.081 .      S
C882  H543  1.078 .      S
C883  H544  1.065 .      S
Br69  C885  1.866 .      S
C886  H545  1.081 .      S
C887  H546  1.081 .      S
C888  H547  1.081 .      S
C889  H548  1.072 .      S
C890  C891  1.519 .      S
C893  H549  1.074 .      S
C894  H550  1.078 .      S
C895  H551  1.076 .      S
C896  H552  1.075 .      S
Br70  C898  1.821 .      S
C899  H553  1.081 .      S
C900  H554  1.081 .      S
C901  H555  1.073 .      S
C902  H556  1.044 .      S
C903  C904  1.518 .      S
C906  H557  1.052 .      S
C907  H558  1.069 .      S
C908  H559  1.076 .      S
C909  H560  1.068 .      S
Br71  C911  1.920 .      S
C912  H561  1.081 .      S
C913  H562  1.077 .      S
C914  H563  1.057 .      S
C915  H564  1.062 .      S
C916  C917  1.448 .      S
N141  Zn6   2.215 1_565  S
C919  H565  1.077 .      S
C920  H566  1.081 .      S
C921  H567  1.079 .      S
C922  H568  1.078 .      S
Br72  C924  1.920 .      S
C925  H569  1.063 .      S
C926  H570  1.066 .      S
C927  H571  1.073 .      S
C928  H572  1.069 .      S
C929  C930  1.391 .      S
C932  H573  1.063 .      S
C933  H574  1.078 .      S
C934  H575  1.079 .      S
C935  H576  1.044 .      S
Br73  C937  1.902 .      S
C938  H577  1.081 .      S
C939  H578  1.081 .      S
C940  H579  1.079 .      S
C941  H580  1.077 .      S
C942  C943  1.458 .      S
C945  H581  1.067 .      S
C946  H582  1.074 .      S
C947  H583  1.073 .      S
C948  H584  1.063 .      S
Br74  C950  1.837 .      S
C951  H585  1.074 .      S
C952  H586  1.057 .      S
C953  H587  1.077 .      S
C954  H588  1.068 .      S
C955  C956  1.421 .      S
C958  H589  1.077 .      S
C959  H590  1.081 .      S
C960  H591  1.076 .      S
C961  H592  1.067 .      S
Br75  C963  1.860 .      S
C964  H593  1.060 .      S
C965  H594  1.069 .      S
C966  H595  1.080 .      S
C967  H596  1.053 .      S
C968  C969  1.435 .      S
C971  H597  1.068 .      S
C972  H598  1.059 .      S
C973  H599  1.077 .      S
C974  H600  1.058 .      S
Br76  C976  1.914 .      S
C977  H601  1.073 .      S
C978  H602  1.072 .      S
C979  H603  1.079 .      S
C980  H604  1.070 .      S
C981  C982  1.450 .      S
C984  H605  1.054 .      S
C985  H606  1.079 .      S
C986  H607  1.081 .      S
C987  H608  1.078 .      S
Br77  C989  1.900 .      S
C990  H609  1.081 .      S
C991  H610  1.081 .      S
C992  H611  1.081 .      S
C993  H612  1.073 .      S
C994  C995  1.507 .      S
C997  H613  1.075 .      S
C998  H614  1.081 .      S
C999  H615  1.081 .      S
C1000 H616  1.063 .      S
Br78  C1002 1.809 .      S
C1003 H617  1.081 .      S
C1004 H618  1.081 .      S
C1005 H619  1.080 .      S
C1006 H620  1.058 .      S
C1007 C1008 1.513 .      S
C1010 H621  1.054 .      S
C1011 H622  1.059 .      S
C1012 H623  1.078 .      S
C1013 H624  1.063 .      S
Br79  C1015 1.807 .      S
C1016 H625  1.079 .      S
C1017 H626  1.047 .      S
C1018 H627  1.075 .      S
C1019 H628  1.053 .      S
C1020 C1021 1.483 .      S
C1023 H629  1.056 .      S
C1024 H630  1.080 .      S
C1025 H631  1.081 1_655  S
C1026 H632  1.064 .      S
N158  Zn37  2.264 1_656  S
H631  C1025 1.081 1_455  S
Br80  C1028 1.906 .      S
C1029 H633  1.074 .      S
C1030 H634  1.050 .      S
C1031 H635  1.060 .      S
C1032 H636  1.071 .      S
C1033 C1034 1.385 .      S
C1036 H637  1.072 .      S
C1037 H638  1.081 .      S
C1038 H639  1.081 .      S
C1039 H640  1.070 .      S
Br81  C1041 1.820 .      S
C1042 H641  1.079 .      S
C1043 H642  1.081 .      S
C1044 H643  1.056 .      S
C1045 H644  1.067 .      S
C1046 C1047 1.472 .      S
N161  Zn48  2.300 1_554  S
C1049 H645  1.070 1_554  S
C1050 H646  1.075 .      S
C1051 H647  1.080 .      S
C1052 H648  1.048 .      S
H645  C1049 1.070 1_556  S
Br82  C1054 1.884 .      S
C1055 H649  1.033 1_554  S
C1056 H650  1.078 1_554  S
C1057 H651  1.074 .      S
C1058 H652  1.077 .      S
C1059 C1060 1.414 .      S
C1062 H653  1.075 .      S
C1063 H654  1.080 .      S
C1064 H655  1.081 .      S
C1065 H656  1.072 .      S
H649  C1055 1.033 1_556  S
H650  C1056 1.078 1_556  S
Br83  C1067 1.912 .      S
C1068 H657  1.081 .      S
C1069 H658  1.081 .      S
C1070 H659  1.081 .      S
C1071 H660  1.071 .      S
C1072 C1073 1.471 1_455  S
C1073 C1072 1.471 1_655  S
C1075 H661  1.071 .      S
C1076 H662  1.077 .      S
C1077 H663  1.080 .      S
C1078 H664  1.064 .      S
Br84  C1080 1.859 .      S
C1081 H665  1.081 .      S
C1082 H666  1.081 .      S
C1083 H667  1.078 .      S
C1084 H668  1.061 .      S
C1085 C1086 1.486 .      S
C1088 H669  1.045 .      S
C1089 H670  1.055 .      S
C1090 H671  1.065 .      S
C1091 H672  1.065 .      S
Br85  C1093 1.890 .      S
C1094 H673  1.078 .      S
C1095 H674  1.081 .      S
C1096 H675  1.064 .      S
C1097 H676  1.074 .      S
C1098 C1099 1.451 .      S
C1101 H677  1.053 .      S
C1102 H678  1.081 .      S
C1103 H679  1.074 .      S
C1104 H680  1.065 .      S
Br86  C1106 1.918 .      S
C1107 H681  1.079 .      S
C1108 H682  1.078 .      S
C1109 H683  1.060 1_545  S
C1110 H684  1.073 1_545  S
C1111 C1112 1.435 .      S
N171  Zn40  2.245 1_655  S
C1114 H685  1.075 .      S
C1115 H686  1.081 1_655  S
C1116 H687  1.080 .      S
C1117 H688  1.074 .      S
H683  C1109 1.060 1_565  S
H684  C1110 1.073 1_565  S
H686  C1115 1.081 1_455  S
Br87  C1119 1.879 1_545  S
C1119 Br87  1.879 1_565  S
C1120 H689  1.075 .      S
C1121 H690  1.059 .      S
C1122 H691  1.068 .      S
C1123 H692  1.072 .      S
C1124 C1125 1.411 1_565  S
C1125 C1124 1.411 1_545  S
C1127 H693  1.065 .      S
C1128 H694  1.081 .      S
C1129 H695  1.081 .      S
C1130 H696  1.074 .      S
Br88  C1132 1.802 .      S
C1133 H697  1.081 1_455  S
C1134 H698  1.081 .      S
C1135 H699  1.076 1_565  S
C1136 H700  1.077 1_565  S
C1137 C1138 1.503 1_455  S
C1138 C1137 1.503 1_655  S
N175  Zn40  2.240 1_565  S
C1140 H701  1.058 1_565  S
C1141 H702  1.075 .      S
C1142 H703  1.081 .      S
C1143 H704  1.064 .      S
H697  C1133 1.081 1_655  S
H699  C1135 1.076 1_545  S
H700  C1136 1.077 1_545  S
H701  C1140 1.058 1_545  S
Br89  C1145 1.973 .      S
C1146 H705  1.076 .      S
C1147 H706  1.061 .      S
C1148 H707  1.067 .      S
C1149 H708  1.078 .      S
C1150 C1151 1.400 .      S
C1153 H709  1.071 .      S
C1154 H710  1.081 .      S
C1155 H711  1.081 .      S
C1156 H712  1.058 .      S
Br90  C1158 1.800 .      S
C1159 H713  1.073 .      S
C1160 H714  1.074 .      S
C1161 H715  1.071 1_655  S
C1162 H716  1.060 1_655  S
C1163 C1164 1.422 .      S
C1166 H717  1.070 .      S
C1167 H718  1.081 .      S
C1168 H719  1.078 .      S
C1169 H720  1.076 .      S
H715  C1161 1.071 1_455  S
H716  C1162 1.060 1_455  S
Br91  C1171 1.910 .      S
C1172 H721  1.080 .      S
C1173 H722  1.077 .      S
C1174 H723  1.081 .      S
C1175 H724  1.076 .      S
C1176 C1177 1.469 .      S
C1179 H725  1.071 .      S
C1180 H726  1.081 .      S
C1181 H727  1.081 .      S
C1182 H728  1.067 .      S
Br92  C1184 1.886 .      S
C1185 H729  1.070 .      S
C1186 H730  1.072 .      S
C1187 H731  1.077 .      S
C1188 H732  1.064 .      S
C1189 C1190 1.453 .      S
C1192 H733  1.063 .      S
C1193 H734  1.081 .      S
C1194 H735  1.081 .      S
C1195 H736  1.054 .      S
Br93  C1197 1.915 .      S
C1198 H737  1.048 .      S
C1199 H738  1.063 .      S
C1200 H739  1.072 .      S
C1201 H740  1.062 .      S
C1202 C1203 1.407 .      S
C1205 H741  1.065 .      S
C1206 H742  1.081 .      S
C1207 H743  1.081 1_556  S
C1208 H744  1.076 1_556  S
H743  C1207 1.081 1_554  S
H744  C1208 1.076 1_554  S
Br94  C1210 1.874 .      S
C1211 H745  1.063 .      S
C1212 H746  1.081 .      S
C1213 H747  1.080 .      S
C1214 H748  1.059 1_554  S
C1215 C1216 1.468 .      S
C1218 H749  1.079 .      S
C1219 H750  1.078 .      S
C1220 H751  1.073 .      S
C1221 H752  1.071 .      S
N188  Zn12  2.195 1_554  S
H748  C1214 1.059 1_556  S
Br95  C1223 1.877 .      S
C1224 H753  1.080 .      S
C1225 H754  1.073 .      S
C1226 H755  1.075 .      S
C1227 H756  1.073 .      S
C1228 C1229 1.474 .      S
C1231 H757  1.066 .      S
C1232 H758  1.077 .      S
C1233 H759  1.081 .      S
C1234 H760  1.062 .      S
Br96  C1236 1.893 .      S
C1237 H761  1.049 .      S
C1238 H762  1.080 .      S
C1239 H763  1.076 .      S
C1240 H764  1.049 .      S
C1241 C1242 1.452 .      S
C1244 H765  1.072 .      S
C1245 H766  1.081 .      S
C1246 H767  1.076 .      S
C1247 H768  1.064 .      S
C1    C2    1.371 .      A
C1    C6    1.357 .      A
C2    C3    1.366 .      A
C3    C4    1.361 .      A
C4    C5    1.377 .      A
C5    C6    1.389 .      A
C7    N1    1.403 .      A
C7    N2    1.388 .      A
N1    C8    1.330 .      A
C8    C9    1.354 1_545  A
C8    C13   1.353 .      A
C9    C8    1.354 1_565  A
C9    C10   1.377 .      A
C10   C11   1.355 .      A
C11   C12   1.363 1_565  A
C12   C11   1.363 1_545  A
C12   C13   1.369 .      A
C13   N2    1.341 .      A
C14   C15   1.375 .      A
C14   C19   1.388 1_455  A
C15   C16   1.367 .      A
C16   C17   1.369 1_455  A
C17   C16   1.369 1_655  A
C17   C18   1.372 .      A
C18   C19   1.371 .      A
C19   C14   1.388 1_655  A
C20   N3    1.421 .      A
C20   N4    1.436 .      A
N3    C21   1.344 .      A
C21   C22   1.355 .      A
C21   C26   1.369 .      A
C22   C23   1.381 .      A
C23   C24   1.382 .      A
C24   C25   1.361 .      A
C25   C26   1.355 .      A
C26   N4    1.338 .      A
C27   C28   1.377 .      A
C27   C32   1.406 .      A
C28   C29   1.366 .      A
C29   C30   1.370 .      A
C30   C31   1.377 .      A
C31   C32   1.368 .      A
C33   N5    1.400 .      A
C33   N6    1.400 .      A
N5    C34   1.348 .      A
C34   C35   1.374 .      A
C34   C39   1.381 .      A
C35   C36   1.385 .      A
C36   C37   1.392 .      A
C37   C38   1.387 .      A
C38   C39   1.375 .      A
C39   N6    1.345 .      A
C40   C41   1.368 .      A
C40   C45   1.369 .      A
C41   C42   1.379 .      A
C42   C43   1.374 .      A
C43   C44   1.378 .      A
C44   C45   1.372 .      A
C46   N7    1.377 .      A
C46   N8    1.394 .      A
N7    C47   1.348 .      A
C47   C48   1.368 .      A
C47   C52   1.371 .      A
C48   C49   1.376 .      A
C49   C50   1.375 .      A
C50   C51   1.378 .      A
C51   C52   1.377 .      A
C52   N8    1.362 .      A
C53   C54   1.372 .      A
C53   C58   1.289 .      A
C54   C55   1.377 .      A
C55   C56   1.379 .      A
C56   C57   1.379 .      A
C57   C58   1.385 .      A
C59   N9    1.367 .      A
C59   N10   1.389 .      A
N9    C60   1.360 .      A
C60   C61   1.377 .      A
C60   C65   1.377 .      A
C61   C62   1.383 .      A
C62   C63   1.386 .      A
C63   C64   1.383 .      A
C64   C65   1.373 .      A
C65   N10   1.345 .      A
C66   C67   1.375 .      A
C66   C71   1.357 .      A
C67   C68   1.381 .      A
C68   C69   1.372 .      A
C69   C70   1.372 .      A
C70   C71   1.373 .      A
C72   N11   1.408 .      A
C72   N12   1.408 .      A
N11   C73   1.348 .      A
C73   C74   1.353 .      A
C73   C78   1.372 .      A
C74   C75   1.382 .      A
C75   C76   1.384 .      A
C76   C77   1.367 .      A
C77   C78   1.364 .      A
C78   N12   1.328 .      A
C79   C80   1.380 1_554  A
C79   C84   1.394 .      A
C80   C79   1.380 1_556  A
C80   C81   1.369 .      A
C81   C82   1.368 1_556  A
C82   C81   1.368 1_554  A
C82   C83   1.379 .      A
C83   C84   1.380 .      A
C85   N13   1.406 .      A
C85   N14   1.436 .      A
N13   C86   1.333 .      A
C86   C87   1.367 .      A
C86   C91   1.369 .      A
C87   C88   1.369 .      A
C88   C89   1.372 .      A
C89   C90   1.391 .      A
C90   C91   1.358 .      A
C91   N14   1.366 .      A
C92   C93   1.368 .      A
C92   C97   1.353 .      A
C93   C94   1.360 .      A
C94   C95   1.361 .      A
C95   C96   1.380 .      A
C96   C97   1.364 .      A
C98   N15   1.409 .      A
C98   N16   1.394 .      A
N15   C99   1.348 .      A
C99   C100  1.368 .      A
C99   C104  1.370 .      A
C100  C101  1.384 .      A
C101  C102  1.386 .      A
C102  C103  1.380 .      A
C103  C104  1.364 .      A
C104  N16   1.354 .      A
C105  C106  1.375 .      A
C105  C110  1.351 .      A
C106  C107  1.361 .      A
C107  C108  1.367 .      A
C108  C109  1.386 .      A
C109  C110  1.379 .      A
C111  N17   1.389 .      A
C111  N18   1.422 .      A
N17   C112  1.351 1_545  A
C112  N17   1.351 1_565  A
C112  C113  1.361 .      A
C112  C117  1.349 1_565  A
C113  C114  1.368 .      A
C114  C115  1.369 .      A
C115  C116  1.371 .      A
C116  C117  1.376 1_565  A
C117  C112  1.349 1_545  A
C117  C116  1.376 1_545  A
C117  N18   1.337 .      A
C118  C119  1.378 .      A
C118  C123  1.395 .      A
C119  C120  1.373 .      A
C120  C121  1.374 .      A
C121  C122  1.375 .      A
C122  C123  1.373 .      A
C124  N19   1.410 .      A
C124  N20   1.400 .      A
N19   C125  1.343 .      A
C125  C126  1.367 .      A
C125  C130  1.356 .      A
C126  C127  1.384 .      A
C127  C128  1.380 .      A
C128  C129  1.376 .      A
C129  C130  1.354 .      A
C130  N20   1.343 .      A
C131  C132  1.366 .      A
C131  C136  1.356 .      A
C132  C133  1.360 .      A
C133  C134  1.365 .      A
C134  C135  1.380 .      A
C135  C136  1.354 .      A
C137  N21   1.409 .      A
C137  N22   1.411 .      A
N21   C138  1.348 .      A
C138  C139  1.373 .      A
C138  C143  1.371 .      A
C139  C140  1.381 .      A
C140  C141  1.388 .      A
C141  C142  1.386 .      A
C142  C143  1.367 .      A
C143  N22   1.344 .      A
C144  C145  1.380 .      A
C144  C149  1.382 .      A
C145  C146  1.378 .      A
C146  C147  1.376 .      A
C147  C148  1.379 .      A
C148  C149  1.389 .      A
C150  N23   1.425 .      A
C150  N24   1.404 .      A
N23   C151  1.342 .      A
C151  C152  1.365 .      A
C151  C156  1.353 .      A
C152  C153  1.372 .      A
C153  C154  1.366 .      A
C154  C155  1.374 .      A
C155  C156  1.365 .      A
C156  N24   1.350 .      A
C157  C158  1.353 .      A
C157  C162  1.393 .      A
C158  C159  1.342 .      A
C159  C160  1.369 .      A
C160  C161  1.363 .      A
C161  C162  1.371 .      A
C163  N25   1.410 .      A
C163  N26   1.401 .      A
N25   C164  1.335 .      A
C164  C165  1.369 .      A
C164  C169  1.375 .      A
C165  C166  1.375 .      A
C166  C167  1.377 .      A
C167  C168  1.379 .      A
C168  C169  1.375 .      A
C169  N26   1.365 .      A
C170  C171  1.379 .      A
C170  C175  1.399 .      A
C171  C172  1.367 .      A
C172  C173  1.368 .      A
C173  C174  1.375 .      A
C174  C175  1.387 .      A
C176  N27   1.411 .      A
C176  N28   1.407 .      A
N27   C177  1.346 .      A
C177  C178  1.367 .      A
C177  C182  1.359 .      A
C178  C179  1.382 .      A
C179  C180  1.376 .      A
C180  C181  1.371 .      A
C181  C182  1.357 .      A
C182  N28   1.332 .      A
C183  C184  1.380 .      A
C183  C188  1.392 .      A
C184  C185  1.373 .      A
C185  C186  1.372 .      A
C186  C187  1.378 .      A
C187  C188  1.373 .      A
C189  N29   1.404 .      A
C189  N30   1.407 .      A
N29   C190  1.357 .      A
C190  C191  1.366 .      A
C190  C195  1.357 .      A
C191  C192  1.378 .      A
C192  C193  1.371 .      A
C193  C194  1.367 .      A
C194  C195  1.351 .      A
C195  N30   1.326 .      A
C196  C197  1.381 .      A
C196  C201  1.367 .      A
C197  C198  1.378 .      A
C198  C199  1.377 .      A
C199  C200  1.379 .      A
C200  C201  1.385 .      A
C202  N31   1.396 .      A
C202  N32   1.418 .      A
N31   C203  1.351 .      A
C203  C204  1.361 .      A
C203  C208  1.369 .      A
C204  C205  1.387 .      A
C205  C206  1.389 .      A
C206  C207  1.382 .      A
C207  C208  1.369 .      A
C208  N32   1.338 .      A
C209  C210  1.361 .      A
C209  C214  1.338 .      A
C210  C211  1.378 .      A
C211  C212  1.372 .      A
C212  C213  1.374 .      A
C213  C214  1.379 .      A
C215  N33   1.397 .      A
C215  N34   1.396 .      A
N33   C216  1.358 .      A
C216  C217  1.369 .      A
C216  C221  1.374 .      A
C217  C218  1.385 .      A
C218  C219  1.389 .      A
C219  C220  1.383 .      A
C220  C221  1.369 .      A
C221  N34   1.344 .      A
C222  C223  1.377 .      A
C222  C227  1.384 .      A
C223  C224  1.368 .      A
C224  C225  1.370 .      A
C225  C226  1.385 .      A
C226  C227  1.363 .      A
C228  N35   1.418 .      A
C228  N36   1.413 .      A
N35   C229  1.348 .      A
C229  C230  1.359 .      A
C229  C234  1.362 .      A
C230  C231  1.380 .      A
C231  C232  1.373 1_556  A
C232  C231  1.373 1_554  A
C232  C233  1.372 1_554  A
C233  C232  1.372 1_556  A
C233  C234  1.353 .      A
C234  N36   1.335 .      A
C235  C236  1.370 .      A
C235  C240  1.404 .      A
C236  C237  1.362 .      A
C237  C238  1.371 .      A
C238  C239  1.357 .      A
C239  C240  1.340 .      A
C241  N37   1.390 .      A
C241  N38   1.380 .      A
N37   C242  1.347 .      A
C242  C243  1.366 .      A
C242  C247  1.375 .      A
C243  C244  1.383 .      A
C244  C245  1.388 .      A
C245  C246  1.385 .      A
C246  C247  1.379 .      A
C247  N38   1.349 .      A
C248  C249  1.369 .      A
C248  C253  1.396 .      A
C249  C250  1.349 .      A
C250  C251  1.366 .      A
C251  C252  1.375 .      A
C252  C253  1.380 .      A
C254  N39   1.430 .      A
C254  N40   1.405 .      A
N39   C255  1.334 .      A
C255  C256  1.367 .      A
C255  C260  1.365 .      A
C256  C257  1.367 .      A
C257  C258  1.367 .      A
C258  C259  1.388 .      A
C259  C260  1.364 .      A
C260  N40   1.351 .      A
C261  C262  1.378 .      A
C261  C266  1.387 .      A
C262  C263  1.370 .      A
C263  C264  1.372 .      A
C264  C265  1.383 .      A
C265  C266  1.377 .      A
C267  N41   1.411 .      A
C267  N42   1.416 .      A
N41   C268  1.333 .      A
C268  C269  1.355 .      A
C268  C273  1.351 .      A
C269  C270  1.383 .      A
C270  C271  1.358 .      A
C271  C272  1.359 .      A
C272  C273  1.373 .      A
C273  N42   1.357 .      A
C274  C275  1.375 .      A
C274  C279  1.398 .      A
C275  C276  1.365 .      A
C276  C277  1.370 .      A
C277  C278  1.370 .      A
C278  C279  1.364 .      A
C280  N43   1.399 .      A
C280  N44   1.421 .      A
N43   C281  1.339 .      A
C281  C282  1.339 .      A
C281  C286  1.357 .      A
C282  C283  1.377 .      A
C283  C284  1.377 .      A
C284  C285  1.377 .      A
C285  C286  1.372 .      A
C286  N44   1.338 .      A
C287  C288  1.373 .      A
C287  C292  1.372 .      A
C288  C289  1.373 .      A
C289  C290  1.371 .      A
C290  C291  1.366 .      A
C291  C292  1.358 .      A
C293  N45   1.386 .      A
C293  N46   1.398 .      A
N45   C294  1.359 1_554  A
C294  N45   1.359 1_556  A
C294  C295  1.384 .      A
C294  C299  1.373 1_556  A
C295  C296  1.380 .      A
C296  C297  1.381 .      A
C297  C298  1.379 1_556  A
C298  C297  1.379 1_554  A
C298  C299  1.380 .      A
C299  C294  1.373 1_554  A
C299  N46   1.362 .      A
C300  C301  1.375 .      A
C300  C305  1.391 .      A
C301  C302  1.358 .      A
C302  C303  1.362 .      A
C303  C304  1.380 .      A
C304  C305  1.385 .      A
C306  N47   1.440 .      A
C306  N48   1.410 .      A
N47   C307  1.352 .      A
C307  C308  1.355 .      A
C307  C312  1.363 .      A
C308  C309  1.386 .      A
C309  C310  1.377 .      A
C310  C311  1.374 .      A
C311  C312  1.362 .      A
C312  N48   1.332 .      A
C313  C314  1.376 .      A
C313  C318  1.348 .      A
C314  C315  1.374 .      A
C315  C316  1.373 .      A
C316  C317  1.376 .      A
C317  C318  1.387 .      A
C319  N49   1.413 .      A
C319  N50   1.392 .      A
N49   C320  1.336 .      A
C320  C321  1.357 .      A
C320  C325  1.368 .      A
C321  C322  1.374 .      A
C322  C323  1.379 .      A
C323  C324  1.393 .      A
C324  C325  1.355 .      A
C325  N50   1.345 .      A
C326  C327  1.364 .      A
C326  C331  1.373 .      A
C327  C328  1.378 .      A
C328  C329  1.366 .      A
C329  C330  1.353 .      A
C330  C331  1.360 .      A
C332  N51   1.407 .      A
C332  N52   1.415 .      A
N51   C333  1.344 .      A
C333  C334  1.366 .      A
C333  C338  1.384 .      A
C334  C335  1.383 .      A
C335  C336  1.387 .      A
C336  C337  1.384 .      A
C337  C338  1.362 .      A
C338  N52   1.353 .      A
C339  C340  1.374 .      A
C339  C344  1.452 .      A
C340  C341  1.345 .      A
C341  C342  1.353 .      A
C342  C343  1.344 .      A
C343  C344  1.365 .      A
C345  N53   1.414 .      A
C345  N54   1.411 .      A
N53   C346  1.353 .      A
C346  C347  1.371 .      A
C346  C351  1.352 .      A
C347  C348  1.384 .      A
C348  C349  1.386 .      A
C349  C350  1.382 .      A
C350  C351  1.367 .      A
C351  N54   1.336 .      A
C352  C353  1.359 .      A
C352  C357  1.380 .      A
C353  C354  1.352 .      A
C354  C355  1.344 .      A
C355  C356  1.342 .      A
C356  C357  1.354 .      A
C358  N55   1.377 .      A
C358  N56   1.383 .      A
N55   C359  1.348 .      A
C359  C360  1.376 .      A
C359  C364  1.369 .      A
C360  C361  1.380 .      A
C361  C362  1.383 .      A
C362  C363  1.383 .      A
C363  C364  1.383 .      A
C364  N56   1.361 .      A
C365  C366  1.379 .      A
C365  C370  1.385 .      A
C366  C367  1.374 .      A
C367  C368  1.370 .      A
C368  C369  1.377 .      A
C369  C370  1.364 .      A
C371  N57   1.393 .      A
C371  N58   1.396 .      A
N57   C372  1.349 .      A
C372  C373  1.372 .      A
C372  C377  1.370 .      A
C373  C374  1.380 .      A
C374  C375  1.383 .      A
C375  C376  1.381 .      A
C376  C377  1.371 .      A
C377  N58   1.354 .      A
C378  C379  1.355 .      A
C378  C383  1.319 .      A
C379  C380  1.389 .      A
C380  C381  1.369 .      A
C381  C382  1.365 .      A
C382  C383  1.373 .      A
C384  N59   1.395 .      A
C384  N60   1.400 .      A
N59   C385  1.351 .      A
C385  C386  1.356 .      A
C385  C390  1.378 .      A
C386  C387  1.387 .      A
C387  C388  1.383 .      A
C388  C389  1.378 .      A
C389  C390  1.362 .      A
C390  N60   1.340 .      A
C391  C392  1.379 .      A
C391  C396  1.364 .      A
C392  C393  1.370 .      A
C393  C394  1.367 .      A
C394  C395  1.373 1_655  A
C395  C394  1.373 1_455  A
C395  C396  1.374 1_455  A
C396  C395  1.374 1_655  A
C397  N61   1.392 1_655  A
C397  N62   1.400 1_655  A
N61   C397  1.392 1_455  A
N61   C398  1.355 .      A
C398  C399  1.372 .      A
C398  C403  1.358 .      A
C399  C400  1.378 .      A
C400  C401  1.377 .      A
C401  C402  1.382 .      A
C402  C403  1.370 .      A
C403  N62   1.342 .      A
N62   C397  1.400 1_455  A
C404  C405  1.378 .      A
C404  C409  1.369 .      A
C405  C406  1.369 1_556  A
C406  C405  1.369 1_554  A
C406  C407  1.369 1_554  A
C407  C406  1.369 1_556  A
C407  C408  1.378 .      A
C408  C409  1.372 .      A
C410  N63   1.423 .      A
C410  N64   1.434 .      A
N63   C411  1.351 .      A
C411  C412  1.360 .      A
C411  C416  1.367 .      A
C412  C413  1.383 .      A
C413  C414  1.384 .      A
C414  C415  1.380 .      A
C415  C416  1.361 .      A
C416  N64   1.338 .      A
C417  C418  1.374 .      A
C417  C422  1.386 .      A
C418  C419  1.359 .      A
C419  C420  1.360 .      A
C420  C421  1.384 .      A
C421  C422  1.394 .      A
C423  N65   1.395 .      A
C423  N66   1.445 .      A
N65   C424  1.325 .      A
C424  C425  1.362 .      A
C424  C429  1.340 .      A
C425  C426  1.377 .      A
C426  C427  1.378 .      A
C427  C428  1.382 .      A
C428  C429  1.349 .      A
C429  N66   1.351 .      A
C430  C431  1.355 .      A
C430  C435  1.353 .      A
C431  C432  1.362 1_554  A
C432  C431  1.362 1_556  A
C432  C433  1.368 1_556  A
C433  C432  1.368 1_554  A
C433  C434  1.353 .      A
C434  C435  1.361 .      A
C436  N67   1.396 .      A
C436  N68   1.409 .      A
N67   C437  1.362 .      A
C437  C438  1.384 .      A
C437  C442  1.377 .      A
C438  C439  1.381 .      A
C439  C440  1.381 .      A
C440  C441  1.377 .      A
C441  C442  1.370 .      A
C442  N68   1.350 .      A
C443  C444  1.370 .      A
C443  C448  1.384 .      A
C444  C445  1.372 .      A
C445  C446  1.368 .      A
C446  C447  1.375 .      A
C447  C448  1.383 .      A
C449  N69   1.411 .      A
C449  N70   1.394 .      A
N69   C450  1.346 .      A
C450  C451  1.370 .      A
C450  C455  1.368 .      A
C451  C452  1.383 .      A
C452  C453  1.387 .      A
C453  C454  1.382 .      A
C454  C455  1.380 .      A
C455  N70   1.361 .      A
C456  C457  1.379 .      A
C456  C461  1.393 .      A
C457  C458  1.372 .      A
C458  C459  1.370 .      A
C459  C460  1.375 .      A
C460  C461  1.378 .      A
C462  N71   1.402 .      A
C462  N72   1.397 .      A
N71   C463  1.342 .      A
C463  C464  1.352 .      A
C463  C468  1.372 .      A
C464  C465  1.361 .      A
C465  C466  1.371 .      A
C466  C467  1.374 .      A
C467  C468  1.373 .      A
C468  N72   1.343 .      A
C469  C470  1.375 .      A
C469  C474  1.387 .      A
C470  C471  1.362 .      A
C471  C472  1.366 .      A
C472  C473  1.388 .      A
C473  C474  1.366 .      A
C475  N73   1.401 .      A
C475  N74   1.408 .      A
N73   C476  1.326 .      A
C476  C477  1.371 1_556  A
C476  C481  1.357 .      A
C477  C476  1.371 1_554  A
C477  C478  1.383 .      A
C478  C479  1.375 1_554  A
C479  C478  1.375 1_556  A
C479  C480  1.380 .      A
C480  C481  1.326 .      A
C481  N74   1.340 .      A
C482  C483  1.381 .      A
C482  C487  1.376 .      A
C483  C484  1.371 .      A
C484  C485  1.368 .      A
C485  C486  1.375 .      A
C486  C487  1.392 .      A
C488  N75   1.401 .      A
C488  N76   1.406 .      A
N75   C489  1.348 .      A
C489  C490  1.374 .      A
C489  C494  1.364 .      A
C490  C491  1.372 .      A
C491  C492  1.368 .      A
C492  C493  1.375 .      A
C493  C494  1.393 .      A
C494  N76   1.367 .      A
C495  C496  1.340 .      A
C495  C500  1.362 .      A
C496  C497  1.371 .      A
C497  C498  1.366 .      A
C498  C499  1.335 .      A
C499  C500  1.345 .      A
C501  N77   1.371 .      A
C501  N78   1.382 .      A
N77   C502  1.354 .      A
C502  C503  1.372 .      A
C502  C507  1.378 .      A
C503  C504  1.383 .      A
C504  C505  1.389 .      A
C505  C506  1.385 .      A
C506  C507  1.363 .      A
C507  N78   1.345 .      A
C508  C509  1.368 .      A
C508  C513  1.413 .      A
C509  C510  1.346 .      A
C510  C511  1.362 .      A
C511  C512  1.358 .      A
C512  C513  1.369 .      A
C514  N79   1.408 1_556  A
C514  N80   1.426 1_556  A
N79   C514  1.408 1_554  A
N79   C515  1.346 .      A
C515  C516  1.372 .      A
C515  C520  1.355 .      A
C516  C517  1.380 .      A
C517  C518  1.384 .      A
C518  C519  1.381 .      A
C519  C520  1.368 .      A
C520  N80   1.342 .      A
N80   C514  1.426 1_554  A
C521  C522  1.380 .      A
C521  C526  1.380 1_554  A
C522  C523  1.372 .      A
C523  C524  1.370 1_554  A
C524  C523  1.370 1_556  A
C524  C525  1.377 .      A
C525  C526  1.390 .      A
C526  C521  1.380 1_556  A
C527  N81   1.413 .      A
C527  N82   1.434 .      A
N81   C528  1.316 .      A
C528  C529  1.322 .      A
C528  C533  1.339 .      A
C529  C530  1.355 .      A
C530  C531  1.351 .      A
C531  C532  1.361 .      A
C532  C533  1.337 .      A
C533  N82   1.334 .      A
C534  C535  1.366 .      A
C534  C539  1.380 .      A
C535  C536  1.371 .      A
C536  C537  1.366 .      A
C537  C538  1.377 .      A
C538  C539  1.376 .      A
C540  N83   1.414 .      A
C540  N84   1.413 .      A
N83   C541  1.349 .      A
C541  C542  1.370 .      A
C541  C546  1.367 .      A
C542  C543  1.373 .      A
C543  C544  1.375 .      A
C544  C545  1.383 .      A
C545  C546  1.367 .      A
C546  N84   1.346 .      A
C547  C548  1.359 .      A
C547  C552  1.383 .      A
C548  C549  1.358 .      A
C549  C550  1.368 .      A
C550  C551  1.354 .      A
C551  C552  1.366 .      A
C553  N85   1.385 .      A
C553  N86   1.384 .      A
N85   C554  1.355 .      A
C554  C555  1.365 .      A
C554  C559  1.367 .      A
C555  C556  1.386 .      A
C556  C557  1.393 .      A
C557  C558  1.387 .      A
C558  C559  1.372 .      A
C559  N86   1.343 .      A
C560  C561  1.376 .      A
C560  C565  1.389 .      A
C561  C562  1.354 .      A
C562  C563  1.351 .      A
C563  C564  1.365 .      A
C564  C565  1.367 .      A
C566  N87   1.417 .      A
C566  N88   1.413 .      A
N87   C567  1.343 .      A
C567  C568  1.363 .      A
C567  C572  1.343 .      A
C568  C569  1.374 .      A
C569  C570  1.368 .      A
C570  C571  1.375 .      A
C571  C572  1.373 .      A
C572  N88   1.360 .      A
C573  C574  1.362 .      A
C573  C578  1.392 .      A
C574  C575  1.357 .      A
C575  C576  1.374 .      A
C576  C577  1.369 .      A
C577  C578  1.370 .      A
C579  N89   1.419 .      A
C579  N90   1.400 .      A
N89   C580  1.364 .      A
C580  C581  1.365 .      A
C580  C585  1.369 .      A
C581  C582  1.381 .      A
C582  C583  1.381 .      A
C583  C584  1.379 .      A
C584  C585  1.372 .      A
C585  N90   1.334 .      A
C586  C587  1.359 .      A
C586  C591  1.385 .      A
C587  C588  1.352 .      A
C588  C589  1.372 .      A
C589  C590  1.352 .      A
C590  C591  1.359 .      A
C592  N91   1.400 .      A
C592  N92   1.411 .      A
N91   C593  1.338 .      A
C593  C594  1.373 .      A
C593  C598  1.363 .      A
C594  C595  1.355 .      A
C595  C596  1.362 1_554  A
C596  C595  1.362 1_556  A
C596  C597  1.384 .      A
C597  C598  1.336 1_556  A
C598  C597  1.336 1_554  A
C598  N92   1.354 .      A
C599  C600  1.361 .      A
C599  C604  1.345 1_556  A
C600  C601  1.359 .      A
C601  C602  1.364 .      A
C602  C603  1.369 1_556  A
C603  C602  1.369 1_554  A
C603  C604  1.356 .      A
C604  C599  1.345 1_554  A
C605  N93   1.395 .      A
C605  N94   1.395 .      A
N93   C606  1.354 .      A
C606  C607  1.363 .      A
C606  C611  1.375 .      A
C607  C608  1.380 .      A
C608  C609  1.383 .      A
C609  C610  1.383 .      A
C610  C611  1.369 .      A
C611  N94   1.346 .      A
C612  C613  1.378 .      A
C612  C617  1.384 .      A
C613  C614  1.376 .      A
C614  C615  1.376 .      A
C615  C616  1.377 .      A
C616  C617  1.375 .      A
C618  N95   1.405 .      A
C618  N96   1.402 .      A
N95   C619  1.342 .      A
C619  C620  1.349 .      A
C619  C624  1.339 .      A
C620  C621  1.373 .      A
C621  C622  1.369 .      A
C622  C623  1.375 .      A
C623  C624  1.371 .      A
C624  N96   1.349 .      A
C625  C626  1.373 .      A
C625  C630  1.389 .      A
C626  C627  1.359 .      A
C627  C628  1.367 .      A
C628  C629  1.370 .      A
C629  C630  1.358 .      A
C631  N97   1.413 .      A
C631  N98   1.412 .      A
N97   C632  1.363 .      A
C632  C633  1.376 .      A
C632  C637  1.366 .      A
C633  C634  1.389 .      A
C634  C635  1.384 .      A
C635  C636  1.375 .      A
C636  C637  1.374 .      A
C637  N98   1.342 .      A
C638  C639  1.376 .      A
C638  C643  1.383 .      A
C639  C640  1.374 .      A
C640  C641  1.377 .      A
C641  C642  1.379 .      A
C642  C643  1.374 .      A
C644  N99   1.414 .      A
C644  N100  1.389 .      A
N99   C645  1.352 .      A
C645  C646  1.363 .      A
C645  C650  1.352 .      A
C646  C647  1.374 .      A
C647  C648  1.382 .      A
C648  C649  1.365 .      A
C649  C650  1.353 .      A
C650  N100  1.329 .      A
C651  C652  1.370 .      A
C651  C656  1.375 .      A
C652  C653  1.368 .      A
C653  C654  1.376 .      A
C654  C655  1.371 .      A
C655  C656  1.370 .      A
C657  N101  1.410 .      A
C657  N102  1.416 .      A
N101  C658  1.338 .      A
C658  C659  1.372 .      A
C658  C663  1.370 .      A
C659  C660  1.381 .      A
C660  C661  1.386 .      A
C661  C662  1.387 .      A
C662  C663  1.348 .      A
C663  N102  1.353 .      A
C664  C665  1.380 .      A
C664  C669  1.333 .      A
C665  C666  1.372 .      A
C666  C667  1.370 .      A
C667  C668  1.361 .      A
C668  C669  1.353 .      A
C670  N103  1.389 1_554  A
C670  N104  1.390 1_554  A
N103  C670  1.389 1_556  A
N103  C671  1.363 1_455  A
C671  N103  1.363 1_655  A
C671  C672  1.355 .      A
C671  C676  1.365 .      A
C672  C673  1.395 .      A
C673  C674  1.376 .      A
C674  C675  1.367 .      A
C675  C676  1.370 .      A
C676  N104  1.325 1_655  A
N104  C670  1.390 1_556  A
N104  C676  1.325 1_455  A
C677  C678  1.381 .      A
C677  C682  1.419 .      A
C678  C679  1.361 .      A
C679  C680  1.360 .      A
C680  C681  1.372 .      A
C681  C682  1.355 .      A
C683  N105  1.413 .      A
C683  N106  1.387 1_455  A
N105  C684  1.350 .      A
C684  C685  1.377 .      A
C684  C689  1.376 .      A
C685  C686  1.385 .      A
C686  C687  1.386 .      A
C687  C688  1.384 .      A
C688  C689  1.363 .      A
C689  N106  1.343 1_455  A
N106  C683  1.387 1_655  A
N106  C689  1.343 1_655  A
C690  C691  1.363 .      A
C690  C695  1.381 .      A
C691  C692  1.347 .      A
C692  C693  1.375 .      A
C693  C694  1.349 .      A
C694  C695  1.340 .      A
C696  N107  1.401 .      A
C696  N108  1.413 .      A
N107  C697  1.358 .      A
C697  C698  1.374 .      A
C697  C702  1.370 .      A
C698  C699  1.380 .      A
C699  C700  1.379 .      A
C700  C701  1.377 .      A
C701  C702  1.359 .      A
C702  N108  1.346 .      A
C703  C704  1.367 .      A
C703  C708  1.385 .      A
C704  C705  1.362 .      A
C705  C706  1.378 .      A
C706  C707  1.372 .      A
C707  C708  1.370 .      A
C709  N109  1.398 .      A
C709  N110  1.407 .      A
N109  C710  1.375 .      A
C710  C711  1.371 .      A
C710  C715  1.366 .      A
C711  C712  1.378 .      A
C712  C713  1.366 .      A
C713  C714  1.367 .      A
C714  C715  1.368 .      A
C715  N110  1.326 .      A
C716  C717  1.372 .      A
C716  C721  1.392 .      A
C717  C718  1.364 .      A
C718  C719  1.358 .      A
C719  C720  1.368 .      A
C720  C721  1.342 .      A
C722  N111  1.386 .      A
C722  N112  1.394 .      A
N111  C723  1.345 .      A
C723  C724  1.370 .      A
C723  C728  1.368 .      A
C724  C725  1.382 .      A
C725  C726  1.388 .      A
C726  C727  1.384 .      A
C727  C728  1.373 .      A
C728  N112  1.354 .      A
C729  C730  1.379 .      A
C729  C734  1.396 .      A
C730  C731  1.368 1_556  A
C731  C730  1.368 1_554  A
C731  C732  1.367 .      A
C732  C733  1.380 1_554  A
C733  C732  1.380 1_556  A
C733  C734  1.384 .      A
C735  N113  1.427 .      A
C735  N114  1.416 .      A
N113  C736  1.338 .      A
C736  C737  1.330 .      A
C736  C741  1.363 .      A
C737  C738  1.358 .      A
C738  C739  1.364 .      A
C739  C740  1.382 .      A
C740  C741  1.364 .      A
C741  N114  1.337 .      A
C742  C743  1.375 .      A
C742  C747  1.381 .      A
C743  C744  1.368 .      A
C744  C745  1.371 .      A
C745  C746  1.382 .      A
C746  C747  1.372 .      A
C748  N115  1.394 1_556  A
C748  N116  1.399 1_556  A
N115  C748  1.394 1_554  A
N115  C749  1.365 .      A
C749  C750  1.372 .      A
C749  C754  1.361 .      A
C750  C751  1.384 .      A
C751  C752  1.383 .      A
C752  C753  1.379 .      A
C753  C754  1.378 .      A
C754  N116  1.338 .      A
N116  C748  1.399 1_554  A
C755  C756  1.379 .      A
C755  C760  1.359 .      A
C756  C757  1.379 .      A
C757  C758  1.379 .      A
C758  C759  1.378 .      A
C759  C760  1.378 .      A
C761  N117  1.397 .      A
C761  N118  1.409 .      A
N117  C762  1.354 .      A
C762  C763  1.365 .      A
C762  C767  1.363 .      A
C763  C764  1.374 .      A
C764  C765  1.373 .      A
C765  C766  1.366 .      A
C766  C767  1.366 .      A
C767  N118  1.337 .      A
C768  C769  1.382 .      A
C768  C773  1.414 .      A
C769  C770  1.364 .      A
C770  C771  1.362 1_455  A
C771  C770  1.362 1_655  A
C771  C772  1.377 .      A
C772  C773  1.379 1_655  A
C773  C772  1.379 1_455  A
C774  N119  1.425 .      A
C774  N120  1.395 1_655  A
N119  C775  1.355 1_655  A
C775  N119  1.355 1_455  A
C775  C776  1.378 .      A
C775  C780  1.381 .      A
C776  C777  1.384 .      A
C777  C778  1.386 .      A
C778  C779  1.383 .      A
C779  C780  1.374 .      A
C780  N120  1.341 .      A
N120  C774  1.395 1_455  A
C781  C782  1.372 .      A
C781  C786  1.374 .      A
C782  C783  1.378 1_655  A
C783  C782  1.378 1_455  A
C783  C784  1.372 .      A
C784  C785  1.374 .      A
C785  C786  1.381 1_455  A
C786  C785  1.381 1_655  A
C787  N121  1.397 .      A
C787  N122  1.422 .      A
N121  C788  1.329 .      A
C788  C789  1.353 1_545  A
C788  C793  1.361 .      A
C789  C788  1.353 1_565  A
C789  C790  1.364 .      A
C790  C791  1.366 .      A
C791  C792  1.362 .      A
C792  C793  1.365 1_565  A
C793  C792  1.365 1_545  A
C793  N122  1.342 .      A
C794  C795  1.376 .      A
C794  C799  1.376 .      A
C795  C796  1.372 .      A
C796  C797  1.372 1_554  A
C797  C796  1.372 1_556  A
C797  C798  1.364 1_556  A
C798  C797  1.364 1_554  A
C798  C799  1.374 .      A
C800  N123  1.408 .      A
C800  N124  1.414 .      A
N123  C801  1.340 .      A
C801  C802  1.369 .      A
C801  C806  1.376 .      A
C802  C803  1.377 .      A
C803  C804  1.379 .      A
C804  C805  1.383 .      A
C805  C806  1.375 .      A
C806  N124  1.370 .      A
C807  C808  1.368 .      A
C807  C812  1.305 .      A
C808  C809  1.357 .      A
C809  C810  1.372 .      A
C810  C811  1.337 .      A
C811  C812  1.322 .      A
C813  N125  1.401 .      A
C813  N126  1.414 .      A
N125  C814  1.358 .      A
C814  C815  1.371 .      A
C814  C819  1.384 .      A
C815  C816  1.383 .      A
C816  C817  1.384 .      A
C817  C818  1.380 .      A
C818  C819  1.375 .      A
C819  N126  1.355 .      A
C820  C821  1.380 .      A
C820  C825  1.357 .      A
C821  C822  1.384 .      A
C822  C823  1.369 .      A
C823  C824  1.372 .      A
C824  C825  1.369 .      A
C826  N127  1.407 .      A
C826  N128  1.415 .      A
N127  C827  1.347 .      A
C827  C828  1.368 .      A
C827  C832  1.382 .      A
C828  C829  1.386 .      A
C829  C830  1.389 .      A
C830  C831  1.384 .      A
C831  C832  1.370 .      A
C832  N128  1.351 .      A
C833  C834  1.382 .      A
C833  C838  1.360 .      A
C834  C835  1.381 .      A
C835  C836  1.377 1_554  A
C836  C835  1.377 1_556  A
C836  C837  1.378 1_556  A
C837  C836  1.378 1_554  A
C837  C838  1.373 .      A
C839  N129  1.418 .      A
C839  N130  1.396 .      A
N129  C840  1.348 .      A
C840  C841  1.366 .      A
C840  C845  1.363 .      A
C841  C842  1.381 .      A
C842  C843  1.385 .      A
C843  C844  1.380 .      A
C844  C845  1.376 .      A
C845  N130  1.350 .      A
C846  C847  1.380 .      A
C846  C851  1.406 .      A
C847  C848  1.363 .      A
C848  C849  1.362 .      A
C849  C850  1.378 .      A
C850  C851  1.379 .      A
C852  N131  1.395 .      A
C852  N132  1.416 .      A
N131  C853  1.348 .      A
C853  C854  1.369 .      A
C853  C858  1.370 .      A
C854  C855  1.382 .      A
C855  C856  1.378 .      A
C856  C857  1.379 .      A
C857  C858  1.372 .      A
C858  N132  1.349 .      A
C859  C860  1.366 .      A
C859  C864  1.374 .      A
C860  C861  1.378 .      A
C861  C862  1.370 .      A
C862  C863  1.371 .      A
C863  C864  1.375 .      A
C865  N133  1.396 .      A
C865  N134  1.390 .      A
N133  C866  1.349 .      A
C866  C867  1.370 .      A
C866  C871  1.336 .      A
C867  C868  1.376 .      A
C868  C869  1.375 .      A
C869  C870  1.385 .      A
C870  C871  1.342 .      A
C871  N134  1.332 .      A
C872  C873  1.371 .      A
C872  C877  1.367 .      A
C873  C874  1.374 .      A
C874  C875  1.380 .      A
C875  C876  1.367 .      A
C876  C877  1.362 .      A
C878  N135  1.398 .      A
C878  N136  1.393 .      A
N135  C879  1.335 .      A
C879  C880  1.348 .      A
C879  C884  1.347 .      A
C880  C881  1.371 .      A
C881  C882  1.375 .      A
C882  C883  1.385 .      A
C883  C884  1.361 .      A
C884  N136  1.342 .      A
C885  C886  1.381 .      A
C885  C890  1.392 .      A
C886  C887  1.368 .      A
C887  C888  1.365 .      A
C888  C889  1.377 .      A
C889  C890  1.384 .      A
C891  N137  1.407 .      A
C891  N138  1.411 .      A
N137  C892  1.344 .      A
C892  C893  1.356 .      A
C892  C897  1.363 .      A
C893  C894  1.383 .      A
C894  C895  1.375 .      A
C895  C896  1.379 .      A
C896  C897  1.360 .      A
C897  N138  1.333 .      A
C898  C899  1.384 .      A
C898  C903  1.384 .      A
C899  C900  1.361 .      A
C900  C901  1.362 .      A
C901  C902  1.375 .      A
C902  C903  1.380 .      A
C904  N139  1.427 .      A
C904  N140  1.404 .      A
N139  C905  1.339 .      A
C905  C906  1.332 .      A
C905  C910  1.342 .      A
C906  C907  1.362 .      A
C907  C908  1.362 .      A
C908  C909  1.380 .      A
C909  C910  1.375 .      A
C910  N140  1.343 .      A
C911  C912  1.372 .      A
C911  C916  1.401 .      A
C912  C913  1.364 .      A
C913  C914  1.367 .      A
C914  C915  1.357 .      A
C915  C916  1.359 .      A
C917  N141  1.375 .      A
C917  N142  1.401 .      A
N141  C918  1.365 .      A
C918  C919  1.375 .      A
C918  C923  1.371 .      A
C919  C920  1.384 .      A
C920  C921  1.388 .      A
C921  C922  1.383 .      A
C922  C923  1.367 .      A
C923  N142  1.340 .      A
C924  C925  1.354 .      A
C924  C929  1.371 .      A
C925  C926  1.360 .      A
C926  C927  1.369 .      A
C927  C928  1.348 .      A
C928  C929  1.345 .      A
C930  N143  1.401 .      A
C930  N144  1.393 .      A
N143  C931  1.348 .      A
C931  C932  1.362 .      A
C931  C936  1.369 .      A
C932  C933  1.376 .      A
C933  C934  1.370 .      A
C934  C935  1.377 .      A
C935  C936  1.340 .      A
C936  N144  1.340 .      A
C937  C938  1.377 .      A
C937  C942  1.378 .      A
C938  C939  1.377 .      A
C939  C940  1.378 .      A
C940  C941  1.378 .      A
C941  C942  1.378 .      A
C943  N145  1.420 .      A
C943  N146  1.405 .      A
N145  C944  1.336 .      A
C944  C945  1.369 .      A
C944  C949  1.354 .      A
C945  C946  1.370 .      A
C946  C947  1.370 .      A
C947  C948  1.377 .      A
C948  C949  1.346 .      A
C949  N146  1.338 .      A
C950  C951  1.340 .      A
C950  C955  1.356 .      A
C951  C952  1.365 .      A
C952  C953  1.352 .      A
C953  C954  1.364 .      A
C954  C955  1.351 .      A
C956  N147  1.378 .      A
C956  N148  1.382 .      A
N147  C957  1.361 .      A
C957  C958  1.378 .      A
C957  C962  1.367 .      A
C958  C959  1.380 .      A
C959  C960  1.382 .      A
C960  C961  1.382 .      A
C961  C962  1.364 .      A
C962  N148  1.344 .      A
C963  C964  1.362 .      A
C963  C968  1.330 .      A
C964  C965  1.378 .      A
C965  C966  1.358 .      A
C966  C967  1.361 .      A
C967  C968  1.363 .      A
C969  N149  1.379 .      A
C969  N150  1.413 .      A
N149  C970  1.323 .      A
C970  C971  1.340 .      A
C970  C975  1.360 .      A
C971  C972  1.368 .      A
C972  C973  1.371 .      A
C973  C974  1.379 .      A
C974  C975  1.344 .      A
C975  N150  1.342 .      A
C976  C977  1.365 .      A
C976  C981  1.386 .      A
C977  C978  1.375 .      A
C978  C979  1.368 .      A
C979  C980  1.374 .      A
C980  C981  1.377 .      A
C982  N151  1.416 .      A
C982  N152  1.402 .      A
N151  C983  1.368 .      A
C983  C984  1.366 .      A
C983  C988  1.374 .      A
C984  C985  1.385 .      A
C985  C986  1.383 .      A
C986  C987  1.377 .      A
C987  C988  1.369 .      A
C988  N152  1.336 .      A
C989  C990  1.383 .      A
C989  C994  1.410 .      A
C990  C991  1.368 .      A
C991  C992  1.365 .      A
C992  C993  1.374 .      A
C993  C994  1.394 .      A
C995  N153  1.428 .      A
C995  N154  1.386 .      A
N153  C996  1.336 .      A
C996  C997  1.371 .      A
C996  C1001 1.364 .      A
C997  C998  1.374 .      A
C998  C999  1.377 .      A
C999  C1000 1.382 .      A
C1000 C1001 1.373 .      A
C1001 N154  1.360 .      A
C1002 C1003 1.381 .      A
C1002 C1007 1.369 .      A
C1003 C1004 1.362 .      A
C1004 C1005 1.365 .      A
C1005 C1006 1.388 .      A
C1006 C1007 1.377 .      A
C1008 N155  1.434 .      A
C1008 N156  1.394 .      A
N155  C1009 1.355 .      A
C1009 C1010 1.349 .      A
C1009 C1014 1.354 .      A
C1010 C1011 1.387 .      A
C1011 C1012 1.364 .      A
C1012 C1013 1.363 .      A
C1013 C1014 1.350 .      A
C1014 N156  1.319 .      A
C1015 C1016 1.369 .      A
C1015 C1020 1.364 .      A
C1016 C1017 1.351 .      A
C1017 C1018 1.353 .      A
C1018 C1019 1.361 .      A
C1019 C1020 1.370 .      A
C1021 N157  1.434 .      A
C1021 N158  1.406 .      A
N157  C1022 1.355 .      A
C1022 C1023 1.366 .      A
C1022 C1027 1.372 .      A
C1023 C1024 1.382 .      A
C1024 C1025 1.380 .      A
C1025 C1026 1.378 1_655  A
C1026 C1025 1.378 1_455  A
C1026 C1027 1.366 1_455  A
C1027 C1026 1.366 1_655  A
C1027 N158  1.342 .      A
C1028 C1029 1.362 1_554  A
C1028 C1033 1.344 .      A
C1029 C1028 1.362 1_556  A
C1029 C1030 1.375 .      A
C1030 C1031 1.353 1_556  A
C1031 C1030 1.353 1_554  A
C1031 C1032 1.348 .      A
C1032 C1033 1.356 .      A
C1034 N159  1.394 1_655  A
C1034 N160  1.374 .      A
N159  C1034 1.394 1_455  A
N159  C1035 1.363 .      A
C1035 C1036 1.370 .      A
C1035 C1040 1.381 .      A
C1036 C1037 1.383 .      A
C1037 C1038 1.381 .      A
C1038 C1039 1.379 .      A
C1039 C1040 1.377 .      A
C1040 N160  1.353 1_455  A
N160  C1040 1.353 1_655  A
C1041 C1042 1.375 .      A
C1041 C1046 1.360 .      A
C1042 C1043 1.363 .      A
C1043 C1044 1.367 .      A
C1044 C1045 1.371 .      A
C1045 C1046 1.352 .      A
C1047 N161  1.422 .      A
C1047 N162  1.423 .      A
N161  C1048 1.347 .      A
C1048 C1049 1.352 .      A
C1048 C1053 1.355 .      A
C1049 C1050 1.380 .      A
C1050 C1051 1.372 .      A
C1051 C1052 1.368 .      A
C1052 C1053 1.338 .      A
C1053 N162  1.327 .      A
C1054 C1055 1.359 .      A
C1054 C1059 1.347 .      A
C1055 C1056 1.356 .      A
C1056 C1057 1.368 .      A
C1057 C1058 1.365 .      A
C1058 C1059 1.354 .      A
C1060 N163  1.399 .      A
C1060 N164  1.404 .      A
N163  C1061 1.352 .      A
C1061 C1062 1.373 1_655  A
C1061 C1066 1.377 .      A
C1062 C1061 1.373 1_455  A
C1062 C1063 1.386 .      A
C1063 C1064 1.387 .      A
C1064 C1065 1.386 .      A
C1065 C1066 1.364 1_455  A
C1066 C1065 1.364 1_655  A
C1066 N164  1.347 .      A
C1067 C1068 1.379 .      A
C1067 C1072 1.388 .      A
C1068 C1069 1.376 .      A
C1069 C1070 1.375 .      A
C1070 C1071 1.378 .      A
C1071 C1072 1.379 .      A
C1073 N165  1.411 .      A
C1073 N166  1.400 .      A
N165  C1074 1.341 .      A
C1074 C1075 1.368 .      A
C1074 C1079 1.351 .      A
C1075 C1076 1.379 .      A
C1076 C1077 1.373 .      A
C1077 C1078 1.371 .      A
C1078 C1079 1.374 .      A
C1079 N166  1.350 .      A
C1080 C1081 1.378 .      A
C1080 C1085 1.374 .      A
C1081 C1082 1.372 .      A
C1082 C1083 1.372 .      A
C1083 C1084 1.376 .      A
C1084 C1085 1.375 .      A
C1086 N167  1.421 .      A
C1086 N168  1.416 .      A
N167  C1087 1.323 .      A
C1087 C1088 1.310 .      A
C1087 C1092 1.347 .      A
C1088 C1089 1.356 .      A
C1089 C1090 1.341 .      A
C1090 C1091 1.382 .      A
C1091 C1092 1.350 .      A
C1092 N168  1.328 .      A
C1093 C1094 1.366 .      A
C1093 C1098 1.376 .      A
C1094 C1095 1.373 .      A
C1095 C1096 1.360 .      A
C1096 C1097 1.375 .      A
C1097 C1098 1.376 .      A
C1099 N169  1.408 .      A
C1099 N170  1.409 .      A
N169  C1100 1.384 .      A
C1100 C1101 1.393 .      A
C1100 C1105 1.378 .      A
C1101 C1102 1.376 .      A
C1102 C1103 1.369 .      A
C1103 C1104 1.373 .      A
C1104 C1105 1.365 .      A
C1105 N170  1.335 .      A
C1106 C1107 1.376 .      A
C1106 C1111 1.367 .      A
C1107 C1108 1.368 .      A
C1108 C1109 1.369 .      A
C1109 C1110 1.365 .      A
C1110 C1111 1.368 .      A
C1112 N171  1.393 .      A
C1112 N172  1.420 .      A
N171  C1113 1.353 .      A
C1113 C1114 1.374 1_655  A
C1113 C1118 1.379 .      A
C1114 C1113 1.374 1_455  A
C1114 C1115 1.381 1_455  A
C1115 C1114 1.381 1_655  A
C1115 C1116 1.385 .      A
C1116 C1117 1.383 .      A
C1117 C1118 1.370 .      A
C1118 N172  1.348 .      A
C1119 C1120 1.359 .      A
C1119 C1124 1.358 .      A
C1120 C1121 1.358 .      A
C1121 C1122 1.374 1_455  A
C1122 C1121 1.374 1_655  A
C1122 C1123 1.351 .      A
C1123 C1124 1.358 1_655  A
C1124 C1123 1.358 1_455  A
C1125 N173  1.381 .      A
C1125 N174  1.382 .      A
N173  C1126 1.356 .      A
C1126 C1127 1.361 .      A
C1126 C1131 1.368 1_455  A
C1127 C1128 1.393 1_455  A
C1128 C1127 1.393 1_655  A
C1128 C1129 1.391 .      A
C1129 C1130 1.377 .      A
C1130 C1131 1.373 .      A
C1131 C1126 1.368 1_655  A
C1131 N174  1.334 1_655  A
N174  C1131 1.334 1_455  A
C1132 C1133 1.375 1_655  A
C1132 C1137 1.363 1_655  A
C1133 C1132 1.375 1_455  A
C1133 C1134 1.364 .      A
C1134 C1135 1.368 .      A
C1135 C1136 1.386 .      A
C1136 C1137 1.390 .      A
C1137 C1132 1.363 1_455  A
C1138 N175  1.386 1_655  A
C1138 N176  1.421 .      A
N175  C1138 1.386 1_455  A
N175  C1139 1.349 .      A
C1139 C1140 1.356 .      A
C1139 C1144 1.368 .      A
C1140 C1141 1.389 .      A
C1141 C1142 1.383 .      A
C1142 C1143 1.376 .      A
C1143 C1144 1.366 .      A
C1144 N176  1.341 1_455  A
N176  C1144 1.341 1_655  A
C1145 C1146 1.357 .      A
C1145 C1150 1.376 .      A
C1146 C1147 1.373 .      A
C1147 C1148 1.361 .      A
C1148 C1149 1.358 .      A
C1149 C1150 1.358 .      A
C1151 N177  1.399 .      A
C1151 N178  1.398 .      A
N177  C1152 1.353 1_655  A
C1152 N177  1.353 1_455  A
C1152 C1153 1.369 .      A
C1152 C1157 1.380 .      A
C1153 C1154 1.378 .      A
C1154 C1155 1.381 .      A
C1155 C1156 1.381 .      A
C1156 C1157 1.375 .      A
C1157 N178  1.360 1_455  A
N178  C1157 1.360 1_655  A
C1158 C1159 1.353 .      A
C1158 C1163 1.354 .      A
C1159 C1160 1.356 .      A
C1160 C1161 1.375 .      A
C1161 C1162 1.345 .      A
C1162 C1163 1.345 .      A
C1164 N179  1.390 .      A
C1164 N180  1.403 1_655  A
N179  C1165 1.363 1_655  A
C1165 N179  1.363 1_455  A
C1165 C1166 1.378 .      A
C1165 C1170 1.369 .      A
C1166 C1167 1.380 .      A
C1167 C1168 1.384 .      A
C1168 C1169 1.384 .      A
C1169 C1170 1.366 .      A
C1170 N180  1.343 .      A
N180  C1164 1.403 1_455  A
C1171 C1172 1.374 .      A
C1171 C1176 1.394 .      A
C1172 C1173 1.373 .      A
C1173 C1174 1.361 .      A
C1174 C1175 1.380 .      A
C1175 C1176 1.371 .      A
C1177 N181  1.412 .      A
C1177 N182  1.413 .      A
N181  C1178 1.346 .      A
C1178 C1179 1.370 1_655  A
C1178 C1183 1.373 .      A
C1179 C1178 1.370 1_455  A
C1179 C1180 1.382 .      A
C1180 C1181 1.387 .      A
C1181 C1182 1.384 .      A
C1182 C1183 1.367 1_455  A
C1183 C1182 1.367 1_655  A
C1183 N182  1.354 .      A
C1184 C1185 1.384 .      A
C1184 C1189 1.364 .      A
C1185 C1186 1.371 .      A
C1186 C1187 1.366 .      A
C1187 C1188 1.365 .      A
C1188 C1189 1.357 .      A
C1190 N183  1.414 .      A
C1190 N184  1.410 .      A
N183  C1191 1.351 .      A
C1191 C1192 1.369 1_655  A
C1191 C1196 1.376 .      A
C1192 C1191 1.369 1_455  A
C1192 C1193 1.382 .      A
C1193 C1194 1.381 .      A
C1194 C1195 1.378 .      A
C1195 C1196 1.366 1_455  A
C1196 C1195 1.366 1_655  A
C1196 N184  1.353 .      A
C1197 C1198 1.375 .      A
C1197 C1202 1.335 .      A
C1198 C1199 1.351 .      A
C1199 C1200 1.355 .      A
C1200 C1201 1.366 .      A
C1201 C1202 1.339 .      A
C1203 N185  1.393 .      A
C1203 N186  1.365 .      A
N185  C1204 1.363 .      A
C1204 C1205 1.378 .      A
C1204 C1209 1.377 .      A
C1205 C1206 1.383 .      A
C1206 C1207 1.385 .      A
C1207 C1208 1.380 .      A
C1208 C1209 1.377 .      A
C1209 N186  1.348 .      A
C1210 C1211 1.366 .      A
C1210 C1215 1.359 .      A
C1211 C1212 1.366 .      A
C1212 C1213 1.365 .      A
C1213 C1214 1.382 .      A
C1214 C1215 1.366 .      A
C1216 N187  1.409 .      A
C1216 N188  1.408 .      A
N187  C1217 1.336 .      A
C1217 C1218 1.356 .      A
C1217 C1222 1.366 .      A
C1218 C1219 1.379 .      A
C1219 C1220 1.376 .      A
C1220 C1221 1.380 .      A
C1221 C1222 1.355 .      A
C1222 N188  1.340 .      A
C1223 C1224 1.370 .      A
C1223 C1228 1.388 .      A
C1224 C1225 1.365 .      A
C1225 C1226 1.365 .      A
C1226 C1227 1.382 .      A
C1227 C1228 1.369 .      A
C1229 N189  1.405 .      A
C1229 N190  1.407 .      A
N189  C1230 1.348 .      A
C1230 C1231 1.362 1_655  A
C1230 C1235 1.366 .      A
C1231 C1230 1.362 1_455  A
C1231 C1232 1.386 .      A
C1232 C1233 1.379 .      A
C1233 C1234 1.376 .      A
C1234 C1235 1.369 1_455  A
C1235 C1234 1.369 1_655  A
C1235 N190  1.348 .      A
C1236 C1237 1.370 .      A
C1236 C1241 1.312 .      A
C1237 C1238 1.372 .      A
C1238 C1239 1.347 .      A
C1239 C1240 1.362 .      A
C1240 C1241 1.385 .      A
C1242 N191  1.377 1_655  A
C1242 N192  1.421 .      A
N191  C1242 1.377 1_455  A
N191  C1243 1.351 .      A
C1243 C1244 1.371 .      A
C1243 C1248 1.375 .      A
C1244 C1245 1.379 .      A
C1245 C1246 1.385 .      A
C1246 C1247 1.385 .      A
C1247 C1248 1.362 .      A
C1248 N192  1.353 1_455  A
N192  C1248 1.353 1_655  A
