data_str_m1_o12216_ASV
_audit_creation_date              2015-10-01T06:47:51-0700
_symmetry_space_group_name_H-M    P1
_symmetry_Int_Tables_number       1
_space_group_crystal_system       triclinic
loop_
_symmetry_equiv_pos_as_xyz
  x,y,z
_cell_length_a                    14.5859758
_cell_length_b                    18.6841694
_cell_length_c                    19.2901769
_cell_angle_alpha                 88.9302772
_cell_angle_beta                  91.6508283
_cell_angle_gamma                 90.2717575
_cell_volume                      5253.94674827

loop_
_atom_site_label
_atom_site_type_symbol
_atom_site_description
_atom_site_fract_x
_atom_site_fract_y
_atom_site_fract_z
_atom_type_partial_charge
Zn1   Zn    Zn3+2 0.256504 0.599508 0.843257 0.000000
Zn2   Zn    Zn3+2 0.532591 0.376436 0.318057 0.000000
Zn3   Zn    Zn3+2 0.231297 0.108991 0.338197 0.000000
Zn4   Zn    Zn3+2 0.955284 0.366505 0.358708 0.000000
Zn5   Zn    Zn3+2 0.540668 0.597138 0.587166 0.000000
Zn6   Zn    Zn3+2 0.559117 0.638322 0.086977 0.000000
Zn7   Zn    Zn3+2 0.958951 0.624553 0.590295 0.000000
Zn8   Zn    Zn3+2 0.994170 0.591378 0.106825 0.000000
Zn9   Zn    Zn3+2 0.958871 0.837324 0.340806 0.000000
Zn10  Zn    Zn3+2 0.526263 0.854480 0.350975 0.000000
C1    C     C_3   0.328696 0.157207 0.056436 0.000000
C2    C     C_R   0.353519 0.195730 0.121200 0.000000
C3    C     C_R   0.411245 0.254494 0.118349 0.000000
C4    C     C_R   0.437165 0.289189 0.178666 0.000000
C5    C     C_R   0.406609 0.264408 0.240170 0.000000
N1    N     N_R   0.431336 0.288188 0.303883 0.000000
C6    C     C_R   0.378961 0.242829 0.344930 0.000000
N2    N     N_R   0.324726 0.192690 0.308324 0.000000
C7    C     C_R   0.346803 0.208371 0.242785 0.000000
C8    C     C_R   0.320179 0.172969 0.184202 0.000000
S1    S     S_3+2 0.390402 0.248884 0.436820 0.000000
O1    O     O_2   0.420067 0.326399 0.446283 0.000000
O2    O     O_2   0.475725 0.212297 0.469220 0.000000
O3    O     O_3   0.307136 0.246764 0.496350 0.000000
H1    H     H_    0.291161 0.193926 0.019919 0.000000
H2    H     H_    0.284909 0.110204 0.068278 0.000000
H3    H     H_    0.392081 0.138634 0.032078 0.000000
H4    H     H_    0.436191 0.272176 0.068760 0.000000
H5    H     H_    0.480286 0.334187 0.180078 0.000000
H6    H     H_    0.277282 0.127309 0.188264 0.000000
H7    H     H_    0.308930 0.295266 0.516166 0.000000
C9    C     C_3   0.641677 0.121312 0.190288 0.000000
C10   C     C_R   0.690395 0.165632 0.242908 0.000000
C11   C     C_R   0.783092 0.156104 0.259766 0.000000
C12   C     C_R   0.830359 0.205230 0.301011 0.000000
C13   C     C_R   0.784877 0.265261 0.319191 0.000000
N3    N     N_R   0.820815 0.328652 0.339738 0.000000
C14   C     C_R   0.744204 0.370808 0.336485 0.000000
N4    N     N_R   0.664024 0.337347 0.318005 0.000000
C15   C     C_R   0.692679 0.271375 0.305383 0.000000
C16   C     C_R   0.643752 0.221398 0.270065 0.000000
S2    S     S_3+2 0.751056 0.462041 0.338739 0.000000
O4    O     O_2   0.849826 0.488613 0.340269 0.000000
O5    O     O_2   0.719341 0.483139 0.408875 0.000000
O6    O     O_3   0.688877 0.514361 0.282401 0.000000
H8    H     H_    0.681173 0.122931 0.142209 0.000000
H9    H     H_    0.573158 0.144060 0.177446 0.000000
H10   H     H_    0.631535 0.066271 0.210481 0.000000
H11   H     H_    0.819173 0.112021 0.237953 0.000000
H12   H     H_    0.900975 0.199116 0.316093 0.000000
H13   H     H_    0.573807 0.230469 0.255970 0.000000
H14   H     H_    0.729763 0.554800 0.272512 0.000000
C17   C     C_3   0.683183 0.226206 0.544546 0.000000
C18   C     C_R   0.655260 0.302712 0.537956 0.000000
C19   C     C_R   0.660329 0.346282 0.595665 0.000000
C20   C     C_R   0.626702 0.415600 0.592226 0.000000
C21   C     C_R   0.590779 0.440771 0.529604 0.000000
N5    N     N_R   0.544998 0.502896 0.517346 0.000000
C22   C     C_R   0.505547 0.489361 0.452157 0.000000
N6    N     N_R   0.535314 0.427585 0.420098 0.000000
C23   C     C_R   0.585824 0.397404 0.472638 0.000000
C24   C     C_R   0.618564 0.328622 0.475526 0.000000
S3    S     S_3+2 0.404566 0.534836 0.427517 0.000000
O7    O     O_2   0.481703 0.564050 0.473848 0.000000
O8    O     O_2   0.364803 0.479206 0.478136 0.000000
O9    O     O_3   0.448224 0.479186 0.368383 0.000000
H15   H     H_    0.758335 0.222168 0.551311 0.000000
H16   H     H_    0.662102 0.196806 0.497297 0.000000
H17   H     H_    0.650304 0.201163 0.590071 0.000000
H18   H     H_    0.688027 0.325161 0.644400 0.000000
H19   H     H_    0.628936 0.448866 0.637511 0.000000
H20   H     H_    0.608902 0.293707 0.432222 0.000000
H21   H     H_    0.477338 0.513227 0.336341 0.000000
C25   C     C_3   0.226583 0.375501 0.165515 0.000000
C26   C     C_R   0.289336 0.437970 0.174103 0.000000
C27   C     C_R   0.289686 0.492736 0.124989 0.000000
C28   C     C_R   0.360976 0.541322 0.122470 0.000000
C29   C     C_R   0.437140 0.527228 0.163359 0.000000
N7    N     N_R   0.524285 0.541602 0.146347 0.000000
C30   C     C_R   0.568735 0.483040 0.178542 0.000000
N8    N     N_R   0.518843 0.453098 0.232475 0.000000
C31   C     C_R   0.434372 0.474942 0.213772 0.000000
C32   C     C_R   0.357388 0.435259 0.224718 0.000000
S4    S     S_3+2 0.608820 0.414381 0.120713 0.000000
O10   O     O_2   0.530083 0.381727 0.077350 0.000000
O11   O     O_2   0.639203 0.348320 0.163854 0.000000
O12   O     O_3   0.693480 0.422880 0.062626 0.000000
H22   H     H_    0.254266 0.340115 0.125818 0.000000
H23   H     H_    0.157709 0.391864 0.146908 0.000000
H24   H     H_    0.222771 0.345182 0.215133 0.000000
H25   H     H_    0.235593 0.496072 0.086874 0.000000
H26   H     H_    0.360936 0.582358 0.082933 0.000000
H27   H     H_    0.356142 0.395337 0.264917 0.000000
H28   H     H_    0.699932 0.373940 0.044545 0.000000
C33   C     C_3   0.074976 0.044441 0.049845 0.000000
C34   C     C_R   0.064042 0.012168 0.120302 0.000000
C35   C     C_R   0.008174 0.952496 0.127900 0.000000
C36   C     C_R   0.991310 0.924485 0.193059 0.000000
C37   C     C_R   0.035287 0.954962 0.249091 0.000000
N9    N     N_R   0.026632 0.935377 0.316015 0.000000
C38   C     C_R   0.080346 0.986149 0.349395 0.000000
N10   N     N_R   0.128193 0.032482 0.305231 0.000000
C39   C     C_R   0.094743 0.011618 0.242179 0.000000
C40   C     C_R   0.106899 0.042706 0.177746 0.000000
S5    S     S_3+2 0.064089 0.001970 0.439334 0.000000
O13   O     O_2   0.991109 0.950055 0.466610 0.000000
O14   O     O_2   0.016977 0.073666 0.451472 0.000000
O15   O     O_3   0.152304 0.995239 0.499170 0.000000
H29   H     H_    0.107521 0.005045 0.016094 0.000000
H30   H     H_    0.118172 0.093280 0.052524 0.000000
H31   H     H_    0.006560 0.058942 0.027404 0.000000
H32   H     H_    0.974501 0.929600 0.082788 0.000000
H33   H     H_    0.942605 0.881463 0.199456 0.000000
H34   H     H_    0.144263 0.091494 0.171856 0.000000
H35   H     H_    0.207644 0.999985 0.471045 0.000000
C41   C     C_3   0.442141 0.110003 0.600482 0.000000
C42   C     C_R   0.446558 0.066444 0.536828 0.000000
C43   C     C_R   0.519161 0.019634 0.529449 0.000000
C44   C     C_R   0.522411 0.976660 0.471917 0.000000
C45   C     C_R   0.452389 0.981134 0.423843 0.000000
N11   N     N_R   0.448006 0.947520 0.362979 0.000000
C46   C     C_R   0.378251 0.984209 0.328279 0.000000
N12   N     N_R   0.334686 0.034848 0.368236 0.000000
C47   C     C_R   0.385114 0.031246 0.427819 0.000000
C48   C     C_R   0.380474 0.074326 0.484158 0.000000
S6    S     S_3+2 0.379289 0.989731 0.236100 0.000000
O16   O     O_2   0.431788 0.056988 0.213300 0.000000
O17   O     O_2   0.285498 0.000911 0.200518 0.000000
O18   O     O_3   0.429996 0.923822 0.191168 0.000000
H36   H     H_    0.438818 0.073785 0.646558 0.000000
H37   H     H_    0.380427 0.144439 0.598130 0.000000
H38   H     H_    0.504184 0.144113 0.605269 0.000000
H39   H     H_    0.573587 0.016960 0.568653 0.000000
H40   H     H_    0.580484 0.943972 0.461749 0.000000
H41   H     H_    0.328748 0.114159 0.486224 0.000000
H42   H     H_    0.466478 0.950365 0.156634 0.000000
C49   C     C_3   0.142294 0.317757 0.627053 0.000000
C50   C     C_R   0.126667 0.274851 0.563948 0.000000
C51   C     C_R   0.150130 0.203262 0.566204 0.000000
C52   C     C_R   0.156891 0.167085 0.505033 0.000000
C53   C     C_R   0.129394 0.201209 0.444514 0.000000
N13   N     N_R   0.139380 0.179941 0.379091 0.000000
C54   C     C_R   0.085563 0.229079 0.341548 0.000000
N14   N     N_R   0.048493 0.281944 0.381307 0.000000
C55   C     C_R   0.083442 0.264402 0.445269 0.000000
C56   C     C_R   0.095051 0.306712 0.502287 0.000000
S7    S     S_3+2 0.061117 0.222764 0.249979 0.000000
O19   O     O_2   0.146799 0.224234 0.206232 0.000000
O20   O     O_2   0.011417 0.289492 0.221648 0.000000
O21   O     O_3   0.994745 0.153878 0.219099 0.000000
H43   H     H_    0.105005 0.293203 0.670737 0.000000
H44   H     H_    0.117833 0.372703 0.616954 0.000000
H45   H     H_    0.216694 0.319049 0.640435 0.000000
H46   H     H_    0.174644 0.178579 0.614327 0.000000
H47   H     H_    0.186491 0.115429 0.505436 0.000000
H48   H     H_    0.090258 0.363811 0.497387 0.000000
H49   H     H_    0.986485 0.121941 0.259878 0.000000
C57   C     C_3   0.916981 0.341299 0.720087 0.000000
C58   C     C_R   0.921618 0.365743 0.646293 0.000000
C59   C     C_R   0.900671 0.317855 0.594028 0.000000
C60   C     C_R   0.906047 0.338458 0.524939 0.000000
C61   C     C_R   0.933298 0.407467 0.510200 0.000000
N15   N     N_R   0.952450 0.435605 0.447464 0.000000
C62   C     C_R   0.971120 0.506521 0.464334 0.000000
N16   N     N_R   0.964191 0.522814 0.534015 0.000000
C63   C     C_R   0.948046 0.456649 0.561467 0.000000
C64   C     C_R   0.946938 0.435505 0.630161 0.000000
S8    S     S_3+2 0.030956 0.563589 0.408803 0.000000
O22   O     O_2   0.016947 0.545128 0.333528 0.000000
O23   O     O_2   0.132181 0.545828 0.418832 0.000000
O24   O     O_3   0.026690 0.654112 0.408773 0.000000
H50   H     H_    0.845593 0.325062 0.731188 0.000000
H51   H     H_    0.938089 0.385006 0.755274 0.000000
H52   H     H_    0.962715 0.294732 0.729539 0.000000
H53   H     H_    0.883937 0.263209 0.607844 0.000000
H54   H     H_    0.893144 0.300578 0.484087 0.000000
H55   H     H_    0.972431 0.469613 0.670245 0.000000
H56   H     H_    0.020588 0.668265 0.359429 0.000000
C65   C     C_3   0.218390 0.620467 0.304039 0.000000
C66   C     C_R   0.206187 0.549463 0.273318 0.000000
C67   C     C_R   0.216807 0.488417 0.314909 0.000000
C68   C     C_R   0.152429 0.434938 0.311478 0.000000
C69   C     C_R   0.083742 0.443979 0.263020 0.000000
N17   N     N_R   0.997875 0.419790 0.268732 0.000000
C70   C     C_R   0.955008 0.452308 0.212003 0.000000
N18   N     N_R   0.006442 0.504333 0.179176 0.000000
C71   C     C_R   0.087198 0.496515 0.212553 0.000000
C72   C     C_R   0.151464 0.548290 0.214922 0.000000
S9    S     S_3+2 0.856321 0.416839 0.172784 0.000000
O25   O     O_2   0.829946 0.341877 0.198743 0.000000
O26   O     O_2   0.868241 0.404529 0.095347 0.000000
O27   O     O_3   0.763357 0.468986 0.179572 0.000000
H57   H     H_    0.151915 0.639264 0.320568 0.000000
H58   H     H_    0.265434 0.617324 0.349533 0.000000
H59   H     H_    0.235951 0.659215 0.263631 0.000000
H60   H     H_    0.261142 0.488249 0.359694 0.000000
H61   H     H_    0.148818 0.394871 0.352275 0.000000
H62   H     H_    0.145194 0.594144 0.181231 0.000000
H63   H     H_    0.766549 0.503989 0.141116 0.000000
C73   C     C_3   0.195305 0.629663 0.526544 0.000000
C74   C     C_R   0.269183 0.669134 0.493245 0.000000
C75   C     C_R   0.256777 0.717889 0.438404 0.000000
C76   C     C_R   0.329083 0.761035 0.417314 0.000000
C77   C     C_R   0.413509 0.747821 0.447628 0.000000
N19   N     N_R   0.492462 0.784513 0.440714 0.000000
C78   C     C_R   0.544727 0.756614 0.496665 0.000000
N20   N     N_R   0.507825 0.693725 0.525042 0.000000
C79   C     C_R   0.423490 0.695957 0.497567 0.000000
C80   C     C_R   0.353380 0.657554 0.522133 0.000000
S10   S     S_3+2 0.580700 0.822259 0.559096 0.000000
O28   O     O_2   0.662211 0.869897 0.539887 0.000000
O29   O     O_2   0.616886 0.787044 0.626274 0.000000
O30   O     O_3   0.497831 0.878371 0.587812 0.000000
H64   H     H_    0.129324 0.640861 0.502259 0.000000
H65   H     H_    0.194477 0.645943 0.581021 0.000000
H66   H     H_    0.211388 0.572277 0.523249 0.000000
H67   H     H_    0.190758 0.722960 0.412569 0.000000
H68   H     H_    0.318121 0.805420 0.381496 0.000000
H69   H     H_    0.364110 0.620274 0.564520 0.000000
H70   H     H_    0.500053 0.871715 0.638863 0.000000
C81   C     C_3   0.635096 0.763289 0.839783 0.000000
C82   C     C_R   0.688409 0.735044 0.781645 0.000000
C83   C     C_R   0.780564 0.753615 0.775560 0.000000
C84   C     C_R   0.831785 0.726756 0.722674 0.000000
C85   C     C_R   0.788415 0.681939 0.676394 0.000000
N21   N     N_R   0.825652 0.645536 0.624226 0.000000
C86   C     C_R   0.751794 0.609924 0.598609 0.000000
N22   N     N_R   0.670123 0.622234 0.628632 0.000000
C87   C     C_R   0.696795 0.665681 0.680733 0.000000
C88   C     C_R   0.645593 0.690408 0.733824 0.000000
S11   S     S_3+2 0.759110 0.570701 0.522794 0.000000
O31   O     O_2   0.837288 0.605228 0.482850 0.000000
O32   O     O_2   0.672850 0.589981 0.480761 0.000000
O33   O     O_3   0.772331 0.480658 0.528609 0.000000
H71   H     H_    0.605005 0.718005 0.869506 0.000000
H72   H     H_    0.579561 0.798348 0.818651 0.000000
H73   H     H_    0.680194 0.794919 0.874968 0.000000
H74   H     H_    0.813340 0.788834 0.812654 0.000000
H75   H     H_    0.903288 0.740937 0.718186 0.000000
H76   H     H_    0.574833 0.675131 0.738477 0.000000
H77   H     H_    0.779334 0.472667 0.579273 0.000000
C89   C     C_3   0.352953 0.302191 0.783981 0.000000
C90   C     C_R   0.377629 0.372644 0.752161 0.000000
C91   C     C_R   0.417325 0.375223 0.687949 0.000000
C92   C     C_R   0.442942 0.440087 0.658694 0.000000
C93   C     C_R   0.435420 0.501332 0.696115 0.000000
N23   N     N_R   0.452382 0.569701 0.674282 0.000000
C94   C     C_R   0.402651 0.607608 0.721795 0.000000
N24   N     N_R   0.356398 0.565806 0.770674 0.000000
C95   C     C_R   0.382699 0.499433 0.754080 0.000000
C96   C     C_R   0.355536 0.435713 0.783875 0.000000
S12   S     S_3+2 0.381655 0.700246 0.710403 0.000000
O34   O     O_2   0.428898 0.731808 0.646839 0.000000
O35   O     O_2   0.423264 0.745902 0.768524 0.000000
O36   O     O_3   0.269382 0.724277 0.700109 0.000000
H78   H     H_    0.303237 0.274028 0.749413 0.000000
H79   H     H_    0.322164 0.309781 0.835169 0.000000
H80   H     H_    0.415679 0.269242 0.791150 0.000000
H81   H     H_    0.425133 0.326562 0.659283 0.000000
H82   H     H_    0.455600 0.442743 0.604973 0.000000
H83   H     H_    0.319712 0.434991 0.831548 0.000000
H84   H     H_    0.245136 0.722071 0.747247 0.000000
C97   C     C_3   0.750075 0.979323 0.141279 0.000000
C98   C     C_R   0.686422 0.917399 0.142123 0.000000
C99   C     C_R   0.680655 0.876128 0.083564 0.000000
C100  C     C_R   0.640984 0.809039 0.086376 0.000000
C101  C     C_R   0.600529 0.788107 0.146457 0.000000
N25   N     N_R   0.553054 0.727139 0.156872 0.000000
C102  C     C_R   0.509181 0.742784 0.217699 0.000000
N26   N     N_R   0.530346 0.808954 0.246200 0.000000
C103  C     C_R   0.589783 0.835090 0.199422 0.000000
C104  C     C_R   0.635988 0.899533 0.199945 0.000000
S13   S     S_3+2 0.411230 0.697048 0.242746 0.000000
O37   O     O_2   0.353534 0.673140 0.179959 0.000000
O38   O     O_2   0.347538 0.751934 0.273126 0.000000
O39   O     O_3   0.410624 0.627974 0.300563 0.000000
H85   H     H_    0.818021 0.960365 0.125860 0.000000
H86   H     H_    0.757973 0.001966 0.193642 0.000000
H87   H     H_    0.725605 0.018970 0.101761 0.000000
H88   H     H_    0.712778 0.895193 0.036966 0.000000
H89   H     H_    0.638062 0.774901 0.041777 0.000000
H90   H     H_    0.630389 0.936188 0.242039 0.000000
H91   H     H_    0.384737 0.588299 0.273719 0.000000
C105  C     C_3   0.444804 0.925295 0.988640 0.000000
C106  C     C_R   0.418994 0.852668 0.964109 0.000000
C107  C     C_R   0.359549 0.845491 0.907484 0.000000
C108  C     C_R   0.331534 0.778415 0.887238 0.000000
C109  C     C_R   0.369327 0.719624 0.920886 0.000000
N27   N     N_R   0.350837 0.650679 0.908694 0.000000
C110  C     C_R   0.408647 0.615743 0.956772 0.000000
N28   N     N_R   0.460326 0.660220 0.999997 0.000000
C111  C     C_R   0.432201 0.725738 0.974881 0.000000
C112  C     C_R   0.452465 0.792589 0.999423 0.000000
S14   S     S_3+2 0.419576 0.520900 0.959701 0.000000
O40   O     O_2   0.333488 0.478535 0.978297 0.000000
O41   O     O_2   0.484360 0.499463 0.019642 0.000000
O42   O     O_3   0.465023 0.478624 0.891722 0.000000
H92   H     H_    0.415029 0.967016 0.953244 0.000000
H93   H     H_    0.520556 0.930852 0.990081 0.000000
H94   H     H_    0.418581 0.932873 0.041189 0.000000
H95   H     H_    0.332047 0.892138 0.880369 0.000000
H96   H     H_    0.283503 0.773478 0.844501 0.000000
H97   H     H_    0.483125 0.798837 0.048891 0.000000
H98   H     H_    0.454385 0.427391 0.903027 0.000000
C113  C     C_3   0.651040 0.427977 0.885392 0.000000
C114  C     C_R   0.707076 0.475280 0.931261 0.000000
C115  C     C_R   0.799161 0.459361 0.941333 0.000000
C116  C     C_R   0.853299 0.500487 0.984113 0.000000
C117  C     C_R   0.813848 0.553387 0.020418 0.000000
N29   N     N_R   0.857060 0.599838 0.062281 0.000000
C118  C     C_R   0.787667 0.647426 0.075975 0.000000
N30   N     N_R   0.700256 0.625162 0.052608 0.000000
C119  C     C_R   0.722546 0.568857 0.013072 0.000000
C120  C     C_R   0.668666 0.532962 0.965144 0.000000
S15   S     S_3+2 0.822490 0.739274 0.072655 0.000000
O43   O     O_2   0.926524 0.737828 0.067188 0.000000
O44   O     O_2   0.816049 0.783922 0.138333 0.000000
O45   O     O_3   0.796263 0.791014 0.000462 0.000000
H99   H     H_    0.695267 0.388236 0.860785 0.000000
H100  H     H_    0.616307 0.460058 0.843628 0.000000
H101  H     H_    0.602016 0.397634 0.917419 0.000000
H102  H     H_    0.830247 0.416224 0.913894 0.000000
H103  H     H_    0.925098 0.494000 0.985247 0.000000
H104  H     H_    0.601259 0.551733 0.951689 0.000000
H105  H     H_    0.854456 0.794627 0.975442 0.000000
C121  C     C_3   0.239358 0.861825 0.643860 0.000000
C122  C     C_R   0.192488 0.826977 0.583618 0.000000
C123  C     C_R   0.209825 0.854296 0.518081 0.000000
C124  C     C_R   0.146501 0.844992 0.464360 0.000000
C125  C     C_R   0.073559 0.800630 0.476534 0.000000
N31   N     N_R   0.995430 0.793837 0.438458 0.000000
C126  C     C_R   0.943189 0.751145 0.481573 0.000000
N32   N     N_R   0.993546 0.718027 0.533854 0.000000
C127  C     C_R   0.069869 0.759241 0.535545 0.000000
C128  C     C_R   0.125192 0.774748 0.592326 0.000000
S16   S     S_3+2 0.838796 0.788174 0.507949 0.000000
O46   O     O_2   0.828226 0.866670 0.484915 0.000000
O47   O     O_2   0.844019 0.797674 0.586707 0.000000
O48   O     O_3   0.736344 0.746559 0.492873 0.000000
H106  H     H_    0.232989 0.920706 0.637292 0.000000
H107  H     H_    0.313185 0.848012 0.645855 0.000000
H108  H     H_    0.206020 0.846412 0.692853 0.000000
H109  H     H_    0.267248 0.890217 0.511227 0.000000
H110  H     H_    0.154691 0.871977 0.415330 0.000000
H111  H     H_    0.110177 0.752497 0.642789 0.000000
H112  H     H_    0.720268 0.728265 0.538942 0.000000
C129  C     C_3   0.770020 0.544250 0.793220 0.000000
C130  C     C_R   0.861618 0.578630 0.793424 0.000000
C131  C     C_R   0.904919 0.601990 0.852481 0.000000
C132  C     C_R   0.998781 0.611553 0.853361 0.000000
C133  C     C_R   0.045078 0.618068 0.791983 0.000000
N33   N     N_R   0.136509 0.616728 0.776397 0.000000
C134  C     C_R   0.129712 0.605932 0.705151 0.000000
N34   N     N_R   0.042505 0.616722 0.677718 0.000000
C135  C     C_R   0.992510 0.613496 0.733566 0.000000
C136  C     C_R   0.909798 0.579095 0.734806 0.000000
S17   S     S_3+2 0.182950 0.528654 0.672038 0.000000
O49   O     O_2   0.273675 0.538283 0.635878 0.000000
O50   O     O_2   0.123395 0.505969 0.609793 0.000000
O51   O     O_3   0.187014 0.450904 0.720272 0.000000
H113  H     H_    0.780166 0.487299 0.806894 0.000000
H114  H     H_    0.738939 0.544215 0.740422 0.000000
H115  H     H_    0.724276 0.572605 0.828269 0.000000
H116  H     H_    0.868227 0.604949 0.899571 0.000000
H117  H     H_    0.027916 0.610331 0.902130 0.000000
H118  H     H_    0.881568 0.552102 0.690759 0.000000
H119  H     H_    0.122024 0.438990 0.728566 0.000000
C137  C     C_3   0.307220 0.804026 0.111065 0.000000
C138  C     C_R   0.226001 0.790652 0.153550 0.000000
C139  C     C_R   0.213654 0.832819 0.210512 0.000000
C140  C     C_R   0.141356 0.820794 0.252923 0.000000
C141  C     C_R   0.074749 0.774492 0.230972 0.000000
N35   N     N_R   0.992702 0.763239 0.259497 0.000000
C142  C     C_R   0.960664 0.706274 0.219221 0.000000
N36   N     N_R   0.018807 0.683036 0.169694 0.000000
C143  C     C_R   0.088852 0.729510 0.177091 0.000000
C144  C     C_R   0.166645 0.734207 0.139482 0.000000
S18   S     S_3+2 0.863740 0.654750 0.234110 0.000000
O52   O     O_2   0.881587 0.613760 0.300991 0.000000
O53   O     O_2   0.865130 0.589305 0.189674 0.000000
O54   O     O_3   0.752076 0.684047 0.229524 0.000000
H120  H     H_    0.296017 0.853202 0.079031 0.000000
H121  H     H_    0.317794 0.757018 0.078629 0.000000
H122  H     H_    0.368669 0.811244 0.144692 0.000000
H123  H     H_    0.265340 0.870837 0.225563 0.000000
H124  H     H_    0.139468 0.846138 0.302030 0.000000
H125  H     H_    0.179827 0.695710 0.100329 0.000000
H126  H     H_    0.718548 0.649935 0.199489 0.000000
C145  C     C_3   0.116204 0.312533 0.889945 0.000000
C146  C     C_R   0.115068 0.379152 0.931024 0.000000
C147  C     C_R   0.074318 0.378491 0.994963 0.000000
C148  C     C_R   0.065911 0.441017 0.031479 0.000000
C149  C     C_R   0.101016 0.503688 0.004188 0.000000
N37   N     N_R   0.093183 0.571873 0.027377 0.000000
C150  C     C_R   0.149340 0.609288 0.981179 0.000000
N38   N     N_R   0.185660 0.566150 0.930429 0.000000
C151  C     C_R   0.150777 0.501575 0.945528 0.000000
C152  C     C_R   0.153362 0.441763 0.905591 0.000000
S19   S     S_3+2 0.134215 0.703945 0.960923 0.000000
O55   O     O_2   0.033487 0.725648 0.965253 0.000000
O56   O     O_2   0.144636 0.715430 0.882765 0.000000
O57   O     O_3   0.194413 0.774265 0.994618 0.000000
H127  H     H_    0.155026 0.270539 0.919490 0.000000
H128  H     H_    0.149009 0.322773 0.839590 0.000000
H129  H     H_    0.044817 0.293820 0.880153 0.000000
H130  H     H_    0.044823 0.329402 0.015030 0.000000
H131  H     H_    0.028822 0.439607 0.077994 0.000000
H132  H     H_    0.180314 0.444795 0.854629 0.000000
H133  H     H_    0.147111 0.810499 0.003657 0.000000
C153  C     C_3   0.590222 0.619590 0.350129 0.000000
C154  C     C_R   0.657895 0.676435 0.357889 0.000000
C155  C     C_R   0.748644 0.665894 0.369794 0.000000
C156  C     C_R   0.809838 0.722826 0.364051 0.000000
C157  C     C_R   0.774948 0.788537 0.350500 0.000000
N39   N     N_R   0.819848 0.850690 0.346393 0.000000
C158  C     C_R   0.748575 0.898818 0.352551 0.000000
N40   N     N_R   0.662787 0.866846 0.353872 0.000000
C159  C     C_R   0.684749 0.798256 0.351805 0.000000
C160  C     C_R   0.625586 0.742304 0.351629 0.000000
S20   S     S_3+2 0.766327 0.991689 0.367273 0.000000
O58   O     O_2   0.763047 0.007789 0.444950 0.000000
O59   O     O_2   0.687198 0.037873 0.337828 0.000000
O60   O     O_3   0.865536 0.031250 0.340288 0.000000
H134  H     H_    0.572786 0.614767 0.294200 0.000000
H135  H     H_    0.531682 0.635708 0.380517 0.000000
H136  H     H_    0.613479 0.568466 0.370814 0.000000
H137  H     H_    0.769529 0.611651 0.376363 0.000000
H138  H     H_    0.882048 0.716092 0.366919 0.000000
H139  H     H_    0.553940 0.744278 0.345044 0.000000
H140  H     H_    0.874507 0.071932 0.371845 0.000000

loop_
_geom_bond_atom_site_label_1
_geom_bond_atom_site_label_2
_geom_bond_distance
_geom_bond_site_symmetry_2
_ccdc_geom_bond_type
Zn1   N24   2.154 .      S
Zn1   N27   2.082 .      S
Zn1   N33   2.166 .      S
Zn1   N38   2.083 .      S
Zn2   N1    2.224 .      S
Zn2   N4    2.055 .      S
Zn2   N6    2.203 .      S
Zn2   N8    2.171 .      S
Zn3   N2    2.151 .      S
Zn3   N10   2.161 .      S
Zn3   N12   2.114 .      S
Zn3   N13   2.072 .      S
Zn4   N3    2.106 .      S
Zn4   N14   2.120 1_655  S
Zn4   N15   2.165 .      S
Zn4   N17   2.093 .      S
Zn5   N5    2.239 .      S
Zn5   N20   2.195 .      S
Zn5   N22   2.084 .      S
Zn5   N23   2.198 .      S
Zn6   N7    2.187 .      S
Zn6   N25   2.161 .      S
Zn6   N28   2.214 1_554  S
Zn6   N30   2.197 .      S
Zn7   N16   2.209 .      S
Zn7   N21   2.110 .      S
Zn7   N32   2.108 .      S
Zn7   N34   2.055 1_655  S
Zn8   N18   2.128 1_655  S
Zn8   N29   2.159 .      S
Zn8   N36   2.140 1_655  S
Zn8   N37   2.173 1_655  S
Zn9   N9    2.131 1_655  S
Zn9   N31   2.093 .      S
Zn9   N35   2.180 .      S
Zn9   N39   2.050 .      S
Zn10  N11   2.104 .      S
Zn10  N19   2.215 .      S
Zn10  N26   2.210 .      S
Zn10  N40   2.003 .      S
C1    C2    1.488 .      S
C1    H1    1.109 .      S
C1    H2    1.108 .      S
C1    H3    1.109 .      S
C3    H4    1.079 .      S
C4    H5    1.048 .      S
C6    S1    1.781 .      S
C8    H6    1.059 .      S
S1    O3    1.695 .      S
O3    H7    0.990 .      S
C9    C10   1.485 .      S
C9    H8    1.106 .      S
C9    H9    1.108 .      S
C9    H10   1.104 .      S
C11   H11   1.078 .      S
C12   H12   1.068 .      S
C14   S2    1.708 .      S
C16   H13   1.062 .      S
S2    O6    1.694 .      S
O6    H14   0.980 .      S
C17   C18   1.490 .      S
C17   H15   1.103 .      S
C17   H16   1.108 .      S
C17   H17   1.108 .      S
C19   H18   1.081 .      S
C20   H19   1.081 .      S
C22   S3    1.753 .      S
C24   H20   1.075 .      S
S3    O9    1.697 .      S
O9    H21   0.982 .      S
C25   C26   1.489 .      S
C25   H22   1.107 .      S
C25   H23   1.100 .      S
C25   H24   1.106 .      S
C27   H25   1.064 .      S
C28   H26   1.071 .      S
C30   S4    1.825 .      S
C32   H27   1.066 .      S
S4    O12   1.696 .      S
O12   H28   0.991 .      S
C33   C34   1.489 .      S
C33   H29   1.109 .      S
C33   H30   1.108 .      S
C33   H31   1.109 .      S
C35   H32   1.081 1_455  S
C36   H33   1.078 .      S
N9    Zn9   2.131 1_455  S
C38   S5    1.788 1_565  S
C40   H34   1.066 .      S
S5    C38   1.788 1_545  S
S5    O15   1.707 1_545  S
O15   S5    1.707 1_565  S
O15   H35   0.988 .      S
H32   C35   1.081 1_655  S
C41   C42   1.489 .      S
C41   H36   1.109 .      S
C41   H37   1.108 .      S
C41   H38   1.107 .      S
C43   H39   1.081 .      S
C44   H40   1.071 .      S
C46   S6    1.780 .      S
C48   H41   1.064 .      S
S6    O18   1.703 .      S
O18   H42   0.989 .      S
C49   C50   1.482 .      S
C49   H43   1.107 .      S
C49   H44   1.101 .      S
C49   H45   1.108 .      S
C51   H46   1.081 .      S
C52   H47   1.059 .      S
C54   S7    1.798 .      S
N14   Zn4   2.120 1_455  S
C56   H48   1.072 .      S
S7    O21   1.712 1_455  S
O21   S7    1.712 1_655  S
O21   H49   0.988 .      S
C57   C58   1.490 .      S
C57   H50   1.109 .      S
C57   H51   1.108 .      S
C57   H52   1.108 .      S
C59   H53   1.079 .      S
C60   H54   1.081 .      S
C62   S8    1.746 1_655  S
C64   H55   1.069 .      S
S8    C62   1.746 1_455  S
S8    O24   1.693 .      S
O24   H56   0.985 .      S
C65   C66   1.471 .      S
C65   H57   1.091 .      S
C65   H58   1.099 .      S
C65   H59   1.089 .      S
C67   H60   1.064 .      S
C68   H61   1.078 .      S
C70   S9    1.741 .      S
N18   Zn8   2.128 1_455  S
C72   H62   1.068 .      S
S9    O27   1.683 .      S
O27   H63   0.982 .      S
C73   C74   1.460 .      S
C73   H64   1.078 .      S
C73   H65   1.100 .      S
C73   H66   1.102 .      S
C75   H67   1.075 .      S
C76   H68   1.079 .      S
C78   S10   1.801 .      S
C80   H69   1.073 .      S
S10   O30   1.714 .      S
O30   H70   0.990 .      S
C81   C82   1.489 .      S
C81   H71   1.109 .      S
C81   H72   1.108 .      S
C81   H73   1.108 .      S
C83   H74   1.081 .      S
C84   H75   1.080 .      S
C86   S11   1.654 .      S
C88   H76   1.075 .      S
S11   O33   1.696 .      S
O33   H77   0.988 .      S
C89   C90   1.489 .      S
C89   H78   1.109 .      S
C89   H79   1.108 .      S
C89   H80   1.109 .      S
C91   H81   1.081 .      S
C92   H82   1.058 .      S
C94   S12   1.768 .      S
C96   H83   1.071 .      S
S12   O36   1.705 .      S
O36   H84   0.985 .      S
C97   C98   1.480 .      S
C97   H85   1.105 .      S
C97   H86   1.105 1_565  S
C97   H87   1.106 1_565  S
C99   H88   1.079 .      S
C100  H89   1.080 .      S
C102  S13   1.737 .      S
C104  H90   1.077 .      S
S13   O39   1.690 .      S
O39   H91   0.980 .      S
H86   C97   1.105 1_545  S
H87   C97   1.106 1_545  S
C105  C106  1.489 .      S
C105  H92   1.108 .      S
C105  H93   1.109 .      S
C105  H94   1.105 1_556  S
C107  H95   1.081 .      S
C108  H96   1.071 .      S
C110  S14   1.780 .      S
N28   Zn6   2.214 1_556  S
C112  H97   1.050 1_556  S
S14   O42   1.696 .      S
O42   H98   0.990 .      S
H94   C105  1.105 1_554  S
H97   C112  1.050 1_554  S
C113  C114  1.488 .      S
C113  H99   1.108 .      S
C113  H100  1.107 .      S
C113  H101  1.106 .      S
C115  H102  1.081 .      S
C116  H103  1.054 .      S
C118  S15   1.788 .      S
C120  H104  1.069 .      S
S15   O45   1.715 .      S
O45   H105  0.990 1_554  S
H105  O45   0.990 1_556  S
C121  C122  1.490 .      S
C121  H106  1.109 .      S
C121  H107  1.108 .      S
C121  H108  1.108 .      S
C123  H109  1.080 .      S
C124  H110  1.073 .      S
C126  S16   1.767 .      S
C128  H111  1.079 .      S
S16   O48   1.701 .      S
O48   H112  0.981 .      S
C129  C130  1.480 .      S
C129  H113  1.101 .      S
C129  H114  1.103 .      S
C129  H115  1.107 .      S
C131  H116  1.070 .      S
C132  H117  1.021 1_655  S
C134  S17   1.780 .      S
N34   Zn7   2.055 1_455  S
C136  H118  1.068 .      S
S17   O51   1.711 .      S
O51   H119  0.990 .      S
H117  C132  1.021 1_455  S
C137  C138  1.477 .      S
C137  H120  1.108 .      S
C137  H121  1.102 .      S
C137  H122  1.100 .      S
C139  H123  1.071 .      S
C140  H124  1.068 .      S
C142  S18   1.734 .      S
N36   Zn8   2.140 1_455  S
C144  H125  1.075 .      S
S18   O54   1.720 .      S
O54   H126  0.988 .      S
C145  C146  1.488 .      S
C145  H127  1.109 .      S
C145  H128  1.108 .      S
C145  H129  1.109 .      S
C147  H130  1.081 1_556  S
C148  H131  1.061 .      S
N37   Zn8   2.173 1_455  S
C150  S19   1.817 .      S
C152  H132  1.070 .      S
S19   O57   1.705 .      S
O57   H133  0.990 1_556  S
H130  C147  1.081 1_554  S
H133  O57   0.990 1_554  S
C153  C154  1.453 .      S
C153  H134  1.107 .      S
C153  H135  1.096 .      S
C153  H136  1.081 .      S
C155  H137  1.064 .      S
C156  H138  1.061 .      S
C158  S20   1.780 .      S
C160  H139  1.050 .      S
S20   O60   1.712 1_565  S
O60   S20   1.712 1_545  S
O60   H140  0.989 .      S
C2    C3    1.382 .      A
C2    C8    1.381 .      A
C3    C4    1.385 .      A
C4    C5    1.352 .      A
C5    N1    1.353 .      A
C5    C7    1.361 .      A
N1    C6    1.390 .      A
C6    N2    1.410 .      A
N2    C7    1.340 .      A
C7    C8    1.366 .      A
C10   C11   1.393 .      A
C10   C16   1.368 .      A
C11   C12   1.393 .      A
C12   C13   1.362 .      A
C13   N3    1.354 .      A
C13   C15   1.368 .      A
N3    C14   1.369 .      A
C14   N4    1.365 .      A
N4    C15   1.332 .      A
C15   C16   1.355 .      A
C18   C19   1.391 .      A
C18   C24   1.384 .      A
C19   C20   1.387 .      A
C20   C21   1.378 .      A
C21   N5    1.355 .      A
C21   C23   1.377 .      A
N5    C22   1.395 .      A
C22   N6    1.396 .      A
N6    C23   1.352 .      A
C23   C24   1.373 .      A
C26   C27   1.382 .      A
C26   C32   1.373 .      A
C27   C28   1.378 .      A
C28   C29   1.368 .      A
C29   N7    1.346 .      A
C29   C31   1.367 .      A
N7    C30   1.401 .      A
C30   N8    1.394 .      A
N8    C31   1.337 .      A
C31   C32   1.362 .      A
C34   C35   1.386 1_545  A
C34   C40   1.387 .      A
C35   C34   1.386 1_565  A
C35   C36   1.381 1_455  A
C36   C35   1.381 1_655  A
C36   C37   1.372 1_655  A
C37   C36   1.372 1_455  A
C37   N9    1.345 .      A
C37   C39   1.372 1_565  A
N9    C38   1.384 .      A
C38   N10   1.401 1_565  A
N10   C38   1.401 1_545  A
N10   C39   1.361 .      A
C39   C37   1.372 1_545  A
C39   C40   1.378 .      A
C42   C43   1.389 .      A
C42   C48   1.386 .      A
C43   C44   1.384 1_545  A
C44   C43   1.384 1_565  A
C44   C45   1.361 .      A
C45   N11   1.342 .      A
C45   C47   1.364 1_565  A
N11   C46   1.380 .      A
C46   N12   1.398 1_565  A
N12   C46   1.398 1_545  A
N12   C47   1.347 .      A
C47   C45   1.364 1_545  A
C47   C48   1.368 .      A
C50   C51   1.382 .      A
C50   C56   1.388 .      A
C51   C52   1.377 .      A
C52   C53   1.370 .      A
C53   N13   1.342 .      A
C53   C55   1.361 .      A
N13   C54   1.390 .      A
C54   N14   1.383 .      A
N14   C55   1.356 .      A
C55   C56   1.373 .      A
C58   C59   1.387 .      A
C58   C64   1.385 .      A
C59   C60   1.385 .      A
C60   C61   1.375 .      A
C61   N15   1.347 .      A
C61   C63   1.374 .      A
N15   C62   1.394 .      A
C62   N16   1.390 .      A
N16   C63   1.358 .      A
C63   C64   1.376 .      A
C66   C67   1.389 .      A
C66   C72   1.362 .      A
C67   C68   1.369 .      A
C68   C69   1.359 .      A
C69   N17   1.336 1_455  A
C69   C71   1.371 .      A
N17   C69   1.336 1_655  A
N17   C70   1.377 .      A
C70   N18   1.381 1_655  A
N18   C70   1.381 1_455  A
N18   C71   1.333 .      A
C71   C72   1.344 .      A
C74   C75   1.391 .      A
C74   C80   1.351 .      A
C75   C76   1.390 .      A
C76   C77   1.369 .      A
C77   N19   1.346 .      A
C77   C79   1.359 .      A
N19   C78   1.398 .      A
C78   N20   1.399 .      A
N20   C79   1.326 .      A
C79   C80   1.339 .      A
C82   C83   1.394 .      A
C82   C88   1.388 .      A
C83   C84   1.385 .      A
C84   C85   1.374 .      A
C85   N21   1.353 .      A
C85   C87   1.374 .      A
N21   C86   1.350 .      A
C86   N22   1.362 .      A
N22   C87   1.351 .      A
C87   C88   1.373 .      A
C90   C91   1.382 .      A
C90   C96   1.382 .      A
C91   C92   1.382 .      A
C92   C93   1.371 .      A
C93   N23   1.361 .      A
C93   C95   1.375 .      A
N23   C94   1.391 .      A
C94   N24   1.399 .      A
N24   C95   1.347 .      A
C95   C96   1.374 .      A
C98   C99   1.380 .      A
C98   C104  1.388 .      A
C99   C100  1.379 .      A
C100  C101  1.366 .      A
C101  N25   1.345 .      A
C101  C103  1.372 .      A
N25   C102  1.389 .      A
C102  N26   1.392 .      A
N26   C103  1.352 .      A
C103  C104  1.377 .      A
C106  C107  1.383 .      A
C106  C112  1.386 .      A
C107  C108  1.376 .      A
C108  C109  1.375 .      A
C109  N27   1.339 .      A
C109  C111  1.374 .      A
N27   C110  1.391 .      A
C110  N28   1.392 .      A
N28   C111  1.368 .      A
C111  C112  1.372 .      A
C114  C115  1.385 .      A
C114  C120  1.398 .      A
C115  C116  1.369 .      A
C116  C117  1.361 1_556  A
C117  C116  1.361 1_554  A
C117  N29   1.340 .      A
C117  C119  1.367 .      A
N29   C118  1.385 .      A
C118  N30   1.404 .      A
N30   C119  1.357 .      A
C119  C120  1.378 1_554  A
C120  C119  1.378 1_556  A
C122  C123  1.384 .      A
C122  C128  1.392 .      A
C123  C124  1.381 .      A
C124  C125  1.369 .      A
C125  N31   1.345 1_455  A
C125  C127  1.366 .      A
N31   C125  1.345 1_655  A
N31   C126  1.384 .      A
C126  N32   1.370 .      A
N32   C127  1.351 1_655  A
C127  N32   1.351 1_455  A
C127  C128  1.376 .      A
C130  C131  1.364 .      A
C130  C136  1.348 .      A
C131  C132  1.379 .      A
C132  C133  1.383 1_655  A
C133  C132  1.383 1_455  A
C133  N33   1.376 .      A
C133  C135  1.348 1_455  A
N33   C134  1.393 .      A
C134  N34   1.378 .      A
N34   C135  1.319 1_455  A
C135  C133  1.348 1_655  A
C135  N34   1.319 1_655  A
C135  C136  1.365 .      A
C138  C139  1.380 .      A
C138  C144  1.387 .      A
C139  C140  1.368 .      A
C140  C141  1.361 .      A
C141  N35   1.346 1_455  A
C141  C143  1.370 .      A
N35   C141  1.346 1_655  A
N35   C142  1.400 .      A
C142  N36   1.373 1_655  A
N36   C142  1.373 1_455  A
N36   C143  1.344 .      A
C143  C144  1.366 .      A
C146  C147  1.384 .      A
C146  C152  1.382 .      A
C147  C148  1.383 1_556  A
C148  C147  1.383 1_554  A
C148  C149  1.377 .      A
C149  N37   1.364 .      A
C149  C151  1.363 1_554  A
N37   C150  1.403 1_554  A
C150  N37   1.403 1_556  A
C150  N38   1.397 .      A
N38   C151  1.338 .      A
C151  C149  1.363 1_556  A
C151  C152  1.370 .      A
C154  C155  1.352 .      A
C154  C160  1.322 .      A
C155  C156  1.390 .      A
C156  C157  1.349 .      A
C157  N39   1.333 .      A
C157  C159  1.330 .      A
N39   C158  1.387 .      A
C158  N40   1.385 .      A
N40   C159  1.324 .      A
C159  C160  1.352 .      A
S1    O1    1.522 .      D
S1    O2    1.534 .      D
S2    O4    1.521 .      D
S2    O5    1.503 .      D
S3    O7    1.522 .      D
S3    O8    1.536 .      D
S4    O10   1.532 .      D
S4    O11   1.536 .      D
S5    O13   1.534 1_445  D
S5    O14   1.533 .      D
O13   S5    1.534 1_665  D
S6    O16   1.533 1_565  D
S6    O17   1.526 1_565  D
O16   S6    1.533 1_545  D
O17   S6    1.526 1_545  D
S7    O19   1.528 .      D
S7    O20   1.529 .      D
S8    O22   1.507 .      D
S8    O23   1.521 .      D
S9    O25   1.530 .      D
S9    O26   1.531 .      D
S10   O28   1.532 .      D
S10   O29   1.524 .      D
S11   O31   1.528 .      D
S11   O32   1.518 .      D
S12   O34   1.531 .      D
S12   O35   1.531 .      D
S13   O37   1.527 .      D
S13   O38   1.523 .      D
S14   O40   1.529 .      D
S14   O41   1.521 1_556  D
O41   S14   1.521 1_554  D
S15   O43   1.525 .      D
S15   O44   1.535 .      D
S16   O46   1.532 .      D
S16   O47   1.533 .      D
S17   O49   1.522 .      D
S17   O50   1.527 .      D
S18   O52   1.505 .      D
S18   O53   1.507 .      D
S19   O55   1.531 .      D
S19   O56   1.531 .      D
S20   O58   1.536 1_565  D
S20   O59   1.534 1_565  D
O58   S20   1.536 1_545  D
O59   S20   1.534 1_545  D
