data_str_m1_o12216_MTW
_audit_creation_date              2015-10-01T06:24:50-0700
_symmetry_space_group_name_H-M    P1
_symmetry_Int_Tables_number       1
_space_group_crystal_system       triclinic
loop_
_symmetry_equiv_pos_as_xyz
  x,y,z
_cell_length_a                    10.2612917
_cell_length_b                    24.9768496
_cell_length_c                    25.4033235
_cell_angle_alpha                 72.7477655
_cell_angle_beta                  97.1592280
_cell_angle_gamma                 91.8702149
_cell_volume                      6169.26895008

loop_
_atom_site_label
_atom_site_type_symbol
_atom_site_description
_atom_site_fract_x
_atom_site_fract_y
_atom_site_fract_z
_atom_type_partial_charge
Zn1   Zn    Zn3+2 0.802878 0.757374 0.395379 0.000000
Zn2   Zn    Zn3+2 0.214671 0.082048 0.269674 0.000000
Zn3   Zn    Zn3+2 0.217046 0.334226 0.109079 0.000000
Zn4   Zn    Zn3+2 0.255745 0.498634 0.255645 0.000000
Zn5   Zn    Zn3+2 0.254244 0.747482 0.250131 0.000000
Zn6   Zn    Zn3+2 0.420291 0.190221 0.688772 0.000000
Zn7   Zn    Zn3+2 0.490483 0.431919 0.705936 0.000000
Zn8   Zn    Zn3+2 0.862274 0.167583 0.552571 0.000000
Zn9   Zn    Zn3+2 0.766001 0.008388 0.405335 0.000000
Zn10  Zn    Zn3+2 0.587833 0.089386 0.935921 0.000000
Zn11  Zn    Zn3+2 0.950812 0.526939 0.568707 0.000000
Zn12  Zn    Zn3+2 0.800843 0.405405 0.386701 0.000000
Zn13  Zn    Zn3+2 0.126769 0.978731 0.072981 0.000000
Zn14  Zn    Zn3+2 0.656100 0.334890 0.952089 0.000000
C1    C     C_3   0.625057 0.603907 0.217479 0.000000
C2    C     C_R   0.627361 0.639760 0.254432 0.000000
C3    C     C_R   0.735951 0.636992 0.293463 0.000000
C4    C     C_R   0.743023 0.670117 0.328470 0.000000
C5    C     C_R   0.642308 0.706513 0.321345 0.000000
N1    N     N_R   0.634753 0.743612 0.349184 0.000000
C6    C     C_R   0.508747 0.764402 0.331265 0.000000
N2    N     N_R   0.441512 0.742662 0.291670 0.000000
C7    C     C_R   0.531235 0.707025 0.285956 0.000000
C8    C     C_R   0.521018 0.673757 0.251217 0.000000
S1    S     S_3+2 0.436896 0.810937 0.360631 0.000000
O1    O     O_2   0.521488 0.813615 0.413718 0.000000
O2    O     O_2   0.309106 0.787782 0.384165 0.000000
O3    O     O_3   0.406576 0.879421 0.322430 0.000000
H1    H     H_    0.526282 0.605894 0.193644 0.000000
H2    H     H_    0.650158 0.560951 0.244327 0.000000
H3    H     H_    0.700178 0.618551 0.188594 0.000000
H4    H     H_    0.814510 0.608366 0.296552 0.000000
H5    H     H_    0.826337 0.668732 0.359386 0.000000
H6    H     H_    0.436787 0.674879 0.221088 0.000000
H7    H     H_    0.482792 0.890618 0.301471 0.000000
C9    C     C_3   0.088415 0.943884 0.366910 0.000000
C10   C     C_R   0.110311 0.892962 0.351263 0.000000
C11   C     C_R   0.183154 0.896858 0.307519 0.000000
C12   C     C_R   0.205319 0.849973 0.292152 0.000000
C13   C     C_R   0.136786 0.803227 0.315365 0.000000
N3    N     N_R   0.123270 0.758716 0.297083 0.000000
C14   C     C_R   0.008694 0.735880 0.315330 0.000000
N4    N     N_R   0.959854 0.761341 0.350721 0.000000
C15   C     C_R   0.047313 0.802686 0.350404 0.000000
C16   C     C_R   0.043644 0.844587 0.374402 0.000000
S2    S     S_3+2 0.918357 0.694638 0.277556 0.000000
O4    O     O_2   0.996574 0.734715 0.234678 0.000000
O5    O     O_2   0.796882 0.722831 0.238701 0.000000
O6    O     O_3   0.981263 0.646615 0.251056 0.000000
H8    H     H_    0.135475 0.939606 0.409704 0.000000
H9    H     H_    0.981412 0.950682 0.364749 0.000000
H10   H     H_    0.131017 0.978410 0.335750 0.000000
H11   H     H_    0.225140 0.936342 0.285824 0.000000
H12   H     H_    0.263454 0.851732 0.258989 0.000000
H13   H     H_    0.986243 0.841315 0.407656 0.000000
H14   H     H_    0.984577 0.666977 0.211367 0.000000
C17   C     C_3   0.582847 0.298367 0.290914 0.000000
C18   C     C_R   0.464766 0.265598 0.283461 0.000000
C19   C     C_R   0.449918 0.212621 0.319664 0.000000
C20   C     C_R   0.346124 0.179645 0.308742 0.000000
C21   C     C_R   0.270841 0.199107 0.258519 0.000000
N5    N     N_R   0.203657 0.167000 0.231254 0.000000
C22   C     C_R   0.177821 0.203387 0.178352 0.000000
N6    N     N_R   0.214944 0.258018 0.173796 0.000000
C23   C     C_R   0.282469 0.251986 0.224064 0.000000
C24   C     C_R   0.373594 0.287948 0.238007 0.000000
S3    S     S_3+2 0.190952 0.179636 0.121171 0.000000
O7    O     O_2   0.329149 0.156677 0.124877 0.000000
O8    O     O_2   0.194784 0.231850 0.071040 0.000000
O9    O     O_3   0.087834 0.130219 0.104222 0.000000
H15   H     H_    0.550205 0.340176 0.290435 0.000000
H16   H     H_    0.636317 0.302068 0.254832 0.000000
H17   H     H_    0.644878 0.276894 0.330036 0.000000
H18   H     H_    0.524270 0.195683 0.354124 0.000000
H19   H     H_    0.332080 0.138174 0.336268 0.000000
H20   H     H_    0.385689 0.329568 0.210353 0.000000
H21   H     H_    0.056300 0.108521 0.139416 0.000000
C25   C     C_3   0.466545 0.605337 0.047524 0.000000
C26   C     C_R   0.413580 0.548708 0.072998 0.000000
C27   C     C_R   0.416009 0.507589 0.046382 0.000000
C28   C     C_R   0.364820 0.454888 0.068754 0.000000
C29   C     C_R   0.312804 0.444487 0.118155 0.000000
N7    N     N_R   0.253660 0.397209 0.146108 0.000000
C30   C     C_R   0.231124 0.409243 0.194154 0.000000
N8    N     N_R   0.270989 0.462378 0.194977 0.000000
C31   C     C_R   0.318823 0.483639 0.146093 0.000000
C32   C     C_R   0.363702 0.537106 0.123348 0.000000
S4    S     S_3+2 0.149706 0.363768 0.250455 0.000000
O10   O     O_2   0.182343 0.301495 0.268467 0.000000
O11   O     O_2   0.003085 0.360053 0.233296 0.000000
O12   O     O_3   0.158623 0.379750 0.311860 0.000000
H22   H     H_    0.571554 0.601686 0.042733 0.000000
H23   H     H_    0.457158 0.632283 0.074580 0.000000
H24   H     H_    0.410538 0.624328 0.006189 0.000000
H25   H     H_    0.456516 0.517124 0.007387 0.000000
H26   H     H_    0.362902 0.423899 0.046976 0.000000
H27   H     H_    0.363781 0.569014 0.144307 0.000000
H28   H     H_    0.243107 0.399762 0.314053 0.000000
C33   C     C_3   0.068582 0.627407 0.033860 0.000000
C34   C     C_R   0.112695 0.642758 0.085293 0.000000
C35   C     C_R   0.113582 0.698711 0.084232 0.000000
C36   C     C_R   0.151835 0.713508 0.132166 0.000000
C37   C     C_R   0.187354 0.671178 0.180026 0.000000
N9    N     N_R   0.225235 0.675939 0.230881 0.000000
C38   C     C_R   0.254653 0.621934 0.262059 0.000000
N10   N     N_R   0.236999 0.583755 0.232191 0.000000
C39   C     C_R   0.192118 0.616487 0.180807 0.000000
C40   C     C_R   0.153268 0.600959 0.133807 0.000000
S5    S     S_3+2 0.317783 0.605177 0.333693 0.000000
O13   O     O_2   0.394156 0.654812 0.345660 0.000000
O14   O     O_2   0.427151 0.561321 0.348881 0.000000
O15   O     O_3   0.218469 0.586118 0.385431 0.000000
H29   H     H_    0.966601 0.642528 0.018076 0.000000
H30   H     H_    0.071635 0.581190 0.043879 0.000000
H31   H     H_    0.134616 0.646620 0.001992 0.000000
H32   H     H_    0.083588 0.730830 0.045784 0.000000
H33   H     H_    0.154055 0.756829 0.131627 0.000000
H34   H     H_    0.154669 0.557993 0.133941 0.000000
H35   H     H_    0.220960 0.619527 0.398744 0.000000
C41   C     C_3   0.054600 0.234263 0.808503 0.000000
C42   C     C_R   0.166482 0.266767 0.783429 0.000000
C43   C     C_R   0.190670 0.320207 0.788640 0.000000
C44   C     C_R   0.288927 0.352979 0.762620 0.000000
C45   C     C_R   0.358560 0.330928 0.731206 0.000000
N11   N     N_R   0.452850 0.356183 0.700565 0.000000
C46   C     C_R   0.488030 0.316080 0.677976 0.000000
N12   N     N_R   0.418372 0.267335 0.694220 0.000000
C47   C     C_R   0.337456 0.278521 0.727248 0.000000
C48   C     C_R   0.243044 0.244520 0.753685 0.000000
S6    S     S_3+2 0.610715 0.326483 0.631745 0.000000
O16   O     O_2   0.698500 0.377133 0.633250 0.000000
O17   O     O_2   0.547911 0.344118 0.570992 0.000000
O18   O     O_3   0.715963 0.272796 0.636751 0.000000
H36   H     H_    0.049185 0.193264 0.799811 0.000000
H37   H     H_    0.962056 0.257895 0.790218 0.000000
H38   H     H_    0.068778 0.228244 0.853767 0.000000
H39   H     H_    0.129972 0.336812 0.812037 0.000000
H40   H     H_    0.304614 0.395271 0.764729 0.000000
H41   H     H_    0.225111 0.203040 0.749396 0.000000
H42   H     H_    0.720518 0.273759 0.597782 0.000000
C49   C     C_3   0.458785 0.018169 0.603518 0.000000
C50   C     C_R   0.351291 0.059306 0.595602 0.000000
C51   C     C_R   0.232640 0.053826 0.564961 0.000000
C52   C     C_R   0.129727 0.090780 0.557249 0.000000
C53   C     C_R   0.148048 0.132327 0.582358 0.000000
N13   N     N_R   0.057994 0.168693 0.586019 0.000000
C54   C     C_R   0.126887 0.194962 0.621655 0.000000
N14   N     N_R   0.255726 0.176672 0.638693 0.000000
C55   C     C_R   0.264083 0.137168 0.613312 0.000000
C56   C     C_R   0.368115 0.101678 0.620307 0.000000
S7    S     S_3+2 0.049338 0.241313 0.649838 0.000000
O19   O     O_2   0.947436 0.279347 0.606685 0.000000
O20   O     O_2   0.145722 0.284548 0.664004 0.000000
O21   O     O_3   0.971474 0.214013 0.707934 0.000000
H43   H     H_    0.423868 0.975401 0.623847 0.000000
H44   H     H_    0.544138 0.028561 0.630023 0.000000
H45   H     H_    0.488704 0.019834 0.562600 0.000000
H46   H     H_    0.219229 0.019188 0.548551 0.000000
H47   H     H_    0.037849 0.085594 0.533781 0.000000
H48   H     H_    0.457484 0.104682 0.646464 0.000000
H49   H     H_    0.876943 0.215768 0.693825 0.000000
C57   C     C_3   0.862718 0.065212 0.835494 0.000000
C58   C     C_R   0.836503 0.092620 0.774877 0.000000
C59   C     C_R   0.934456 0.093496 0.741979 0.000000
C60   C     C_R   0.911050 0.117535 0.685428 0.000000
C61   C     C_R   0.790554 0.142370 0.663419 0.000000
N15   N     N_R   0.747709 0.167691 0.609897 0.000000
C62   C     C_R   0.624419 0.186656 0.612128 0.000000
N16   N     N_R   0.589419 0.172412 0.664420 0.000000
C63   C     C_R   0.695986 0.143863 0.695766 0.000000
C64   C     C_R   0.714774 0.116254 0.751611 0.000000
S8    S     S_3+2 0.515000 0.227046 0.555228 0.000000
O22   O     O_2   0.578053 0.276776 0.515293 0.000000
O23   O     O_2   0.419370 0.258118 0.578038 0.000000
O24   O     O_3   0.412719 0.193766 0.516469 0.000000
H50   H     H_    0.778078 0.072079 0.855869 0.000000
H51   H     H_    0.951268 0.084011 0.852366 0.000000
H52   H     H_    0.880798 0.019904 0.843060 0.000000
H53   H     H_    0.028061 0.073671 0.760429 0.000000
H54   H     H_    0.984210 0.113864 0.660129 0.000000
H55   H     H_    0.637266 0.109592 0.776592 0.000000
H56   H     H_    0.326004 0.193994 0.529672 0.000000
C65   C     C_3   0.369699 0.912157 0.849903 0.000000
C66   C     C_R   0.372212 0.974335 0.827125 0.000000
C67   C     C_R   0.319617 0.999595 0.772416 0.000000
C68   C     C_R   0.330414 0.056878 0.748788 0.000000
C69   C     C_R   0.392520 0.087177 0.781515 0.000000
N17   N     N_R   0.426850 0.141242 0.765772 0.000000
C70   C     C_R   0.497951 0.148643 0.812334 0.000000
N18   N     N_R   0.509957 0.100482 0.856326 0.000000
C71   C     C_R   0.441967 0.062861 0.835241 0.000000
C72   C     C_R   0.432512 0.006495 0.859290 0.000000
S9    S     S_3+2 0.612430 0.204725 0.806144 0.000000
O25   O     O_2   0.725154 0.189729 0.853437 0.000000
O26   O     O_2   0.554486 0.257248 0.813904 0.000000
O27   O     O_3   0.691799 0.226956 0.747886 0.000000
H57   H     H_    0.266608 0.897559 0.851545 0.000000
H58   H     H_    0.425392 0.898664 0.892019 0.000000
H59   H     H_    0.416474 0.893367 0.822435 0.000000
H60   H     H_    0.273744 0.974067 0.747649 0.000000
H61   H     H_    0.293539 0.076768 0.705891 0.000000
H62   H     H_    0.476630 0.988290 0.900811 0.000000
H63   H     H_    0.621826 0.232402 0.716428 0.000000
C73   C     C_3   0.266384 0.572373 0.815664 0.000000
C74   C     C_R   0.354247 0.522457 0.834482 0.000000
C75   C     C_R   0.405406 0.502478 0.890181 0.000000
C76   C     C_R   0.485479 0.455293 0.909043 0.000000
C77   C     C_R   0.515991 0.430845 0.870368 0.000000
N19   N     N_R   0.594625 0.386352 0.878414 0.000000
C78   C     C_R   0.590522 0.380402 0.826443 0.000000
N20   N     N_R   0.513035 0.419897 0.786898 0.000000
C79   C     C_R   0.467136 0.450731 0.815880 0.000000
C80   C     C_R   0.384432 0.496187 0.796510 0.000000
S10   S     S_3+2 0.704235 0.337516 0.808925 0.000000
O28   O     O_2   0.744515 0.283810 0.855837 0.000000
O29   O     O_2   0.837181 0.367333 0.802587 0.000000
O30   O     O_3   0.668713 0.318063 0.749402 0.000000
H64   H     H_    0.177938 0.563351 0.837812 0.000000
H65   H     H_    0.236385 0.582402 0.770326 0.000000
H66   H     H_    0.319249 0.608615 0.824853 0.000000
H67   H     H_    0.381697 0.523916 0.919008 0.000000
H68   H     H_    0.524579 0.439206 0.952302 0.000000
H69   H     H_    0.343429 0.510676 0.753476 0.000000
H70   H     H_    0.739076 0.335363 0.726603 0.000000
C81   C     C_3   0.464702 0.658576 0.698787 0.000000
C82   C     C_R   0.383645 0.625047 0.667547 0.000000
C83   C     C_R   0.269018 0.647883 0.633878 0.000000
C84   C     C_R   0.183420 0.615008 0.610092 0.000000
C85   C     C_R   0.215241 0.559444 0.621733 0.000000
N21   N     N_R   0.138186 0.518314 0.610931 0.000000
C86   C     C_R   0.209715 0.470760 0.640651 0.000000
N22   N     N_R   0.331580 0.481454 0.665034 0.000000
C87   C     C_R   0.329460 0.537548 0.653736 0.000000
C88   C     C_R   0.417603 0.569721 0.675929 0.000000
S11   S     S_3+2 0.151723 0.401954 0.642866 0.000000
O31   O     O_2   0.106083 0.370506 0.699067 0.000000
O32   O     O_2   0.264097 0.364414 0.639649 0.000000
O33   O     O_3   0.026506 0.392586 0.595186 0.000000
H71   H     H_    0.498866 0.697111 0.669747 0.000000
H72   H     H_    0.550591 0.633374 0.723429 0.000000
H73   H     H_    0.404639 0.670130 0.727194 0.000000
H74   H     H_    0.243807 0.691109 0.628076 0.000000
H75   H     H_    0.091418 0.631745 0.586108 0.000000
H76   H     H_    0.504443 0.551313 0.703182 0.000000
H77   H     H_    0.062115 0.365612 0.578823 0.000000
C89   C     C_3   0.938209 0.457665 0.854891 0.000000
C90   C     C_R   0.913395 0.471414 0.793739 0.000000
C91   C     C_R   0.012093 0.494502 0.762050 0.000000
C92   C     C_R   0.990237 0.506293 0.705246 0.000000
C93   C     C_R   0.873304 0.489777 0.681806 0.000000
N23   N     N_R   0.832637 0.497171 0.627725 0.000000
C94   C     C_R   0.703187 0.482129 0.627732 0.000000
N24   N     N_R   0.664010 0.462893 0.679579 0.000000
C95   C     C_R   0.773918 0.469186 0.712677 0.000000
C96   C     C_R   0.790567 0.462567 0.768780 0.000000
S12   S     S_3+2 0.591207 0.502192 0.567003 0.000000
O34   O     O_2   0.726200 0.488342 0.553911 0.000000
O35   O     O_2   0.618299 0.552447 0.589856 0.000000
O36   O     O_3   0.544877 0.446781 0.619417 0.000000
H78   H     H_    0.949540 0.496877 0.866893 0.000000
H79   H     H_    0.029167 0.432120 0.870025 0.000000
H80   H     H_    0.854542 0.432671 0.872497 0.000000
H81   H     H_    0.104944 0.505051 0.781648 0.000000
H82   H     H_    0.061799 0.530507 0.681652 0.000000
H83   H     H_    0.711824 0.454363 0.793250 0.000000
H84   H     H_    0.448213 0.445151 0.611214 0.000000
C97   C     C_3   0.855648 0.875183 0.647160 0.000000
C98   C     C_R   0.836160 0.935362 0.615907 0.000000
C99   C     C_R   0.828473 0.973947 0.644865 0.000000
C100  C     C_R   0.819964 0.030356 0.616830 0.000000
C101  C     C_R   0.812891 0.046302 0.560193 0.000000
N25   N     N_R   0.820861 0.098735 0.526718 0.000000
C102  C     C_R   0.811137 0.091539 0.475047 0.000000
N26   N     N_R   0.793983 0.036221 0.475086 0.000000
C103  C     C_R   0.804500 0.008592 0.530428 0.000000
C104  C     C_R   0.827107 0.952251 0.558407 0.000000
S13   S     S_3+2 0.860013 0.147304 0.418574 0.000000
O37   O     O_2   0.929674 0.190380 0.444434 0.000000
O38   O     O_2   0.747218 0.184172 0.381262 0.000000
O39   O     O_3   0.973629 0.137205 0.378028 0.000000
H85   H     H_    0.949559 0.869639 0.675046 0.000000
H86   H     H_    0.858427 0.850797 0.617422 0.000000
H87   H     H_    0.773216 0.860378 0.672167 0.000000
H88   H     H_    0.834410 0.959979 0.689651 0.000000
H89   H     H_    0.816607 0.060859 0.638635 0.000000
H90   H     H_    0.843946 0.921057 0.538508 0.000000
H91   H     H_    0.057180 0.150907 0.393338 0.000000
C105  C     C_3   0.336579 0.292121 0.358784 0.000000
C106  C     C_R   0.460685 0.272569 0.394109 0.000000
C107  C     C_R   0.474810 0.218028 0.428911 0.000000
C108  C     C_R   0.589810 0.201734 0.464285 0.000000
C109  C     C_R   0.688596 0.240551 0.460808 0.000000
N27   N     N_R   0.807616 0.233951 0.489958 0.000000
C110  C     C_R   0.868501 0.283112 0.467934 0.000000
N28   N     N_R   0.788490 0.322005 0.428081 0.000000
C111  C     C_R   0.675787 0.293208 0.425208 0.000000
C112  C     C_R   0.559791 0.310971 0.393181 0.000000
S14   S     S_3+2 0.040543 0.282620 0.473087 0.000000
O40   O     O_2   0.090301 0.222136 0.498889 0.000000
O41   O     O_2   0.110865 0.311127 0.514329 0.000000
O42   O     O_3   0.106736 0.302975 0.411956 0.000000
H92   H     H_    0.274066 0.256060 0.355057 0.000000
H93   H     H_    0.357551 0.320888 0.318518 0.000000
H94   H     H_    0.289506 0.318397 0.378242 0.000000
H95   H     H_    0.395267 0.188565 0.428694 0.000000
H96   H     H_    0.602525 0.159766 0.492448 0.000000
H97   H     H_    0.543201 0.352849 0.367375 0.000000
H98   H     H_    0.103087 0.268960 0.399416 0.000000
C113  C     C_3   0.534500 0.758328 0.577185 0.000000
C114  C     C_R   0.597224 0.803357 0.536128 0.000000
C115  C     C_R   0.593825 0.858264 0.538233 0.000000
C116  C     C_R   0.649442 0.901028 0.499445 0.000000
C117  C     C_R   0.710990 0.887257 0.460383 0.000000
N29   N     N_R   0.762242 0.922405 0.416740 0.000000
C118  C     C_R   0.792753 0.885836 0.388012 0.000000
N30   N     N_R   0.772303 0.830393 0.414921 0.000000
C119  C     C_R   0.715665 0.833280 0.458914 0.000000
C120  C     C_R   0.658331 0.790281 0.495965 0.000000
S15   S     S_3+2 0.808036 0.904508 0.315782 0.000000
O43   O     O_2   0.685922 0.895672 0.277848 0.000000
O44   O     O_2   0.836527 0.841750 0.328550 0.000000
O45   O     O_3   0.942698 0.915062 0.280419 0.000000
H99   H     H_    0.610362 0.726617 0.600376 0.000000
H100  H     H_    0.455962 0.738448 0.555340 0.000000
H101  H     H_    0.491495 0.776870 0.605776 0.000000
H102  H     H_    0.546395 0.867774 0.570100 0.000000
H103  H     H_    0.649666 0.943404 0.501362 0.000000
H104  H     H_    0.655463 0.748197 0.492352 0.000000
H105  H     H_    0.966144 0.877334 0.279493 0.000000
C121  C     C_3   0.590400 0.157229 0.184295 0.000000
C122  C     C_R   0.551090 0.175859 0.230260 0.000000
C123  C     C_R   0.650850 0.180105 0.271806 0.000000
C124  C     C_R   0.686853 0.132102 0.313456 0.000000
C125  C     C_R   0.592393 0.093067 0.323042 0.000000
N31   N     N_R   0.602598 0.041197 0.357142 0.000000
C126  C     C_R   0.481177 0.019756 0.347294 0.000000
N32   N     N_R   0.395967 0.057733 0.308716 0.000000
C127  C     C_R   0.471639 0.102316 0.294385 0.000000
C128  C     C_R   0.445466 0.144688 0.247347 0.000000
S16   S     S_3+2 0.444922 0.951712 0.388133 0.000000
O46   O     O_2   0.545161 0.908486 0.385813 0.000000
O47   O     O_2   0.313250 0.927390 0.372310 0.000000
O48   O     O_3   0.450833 0.945970 0.456495 0.000000
H106  H     H_    0.697708 0.154055 0.188789 0.000000
H107  H     H_    0.535489 0.179503 0.143625 0.000000
H108  H     H_    0.557604 0.113408 0.190555 0.000000
H109  H     H_    0.708673 0.217263 0.270724 0.000000
H110  H     H_    0.781855 0.124808 0.336899 0.000000
H111  H     H_    0.379745 0.133623 0.215974 0.000000
H112  H     H_    0.486257 0.983385 0.456322 0.000000
C129  C     C_3   0.147871 0.930345 0.548546 0.000000
C130  C     C_R   0.144150 0.969316 0.491283 0.000000
C131  C     C_R   0.258333 0.994683 0.471895 0.000000
C132  C     C_R   0.258386 0.027407 0.416677 0.000000
C133  C     C_R   0.138185 0.039096 0.384993 0.000000
N33   N     N_R   0.106574 0.068261 0.331112 0.000000
C134  C     C_R   0.973891 0.072166 0.326177 0.000000
N34   N     N_R   0.921667 0.038990 0.371471 0.000000
C135  C     C_R   0.027309 0.020238 0.407563 0.000000
C136  C     C_R   0.025981 0.983541 0.458957 0.000000
S17   S     S_3+2 0.879998 0.103514 0.261910 0.000000
O49   O     O_2   0.952020 0.104870 0.212156 0.000000
O50   O     O_2   0.857706 0.166067 0.252940 0.000000
O51   O     O_3   0.729976 0.073935 0.251785 0.000000
H113  H     H_    0.250265 0.925751 0.569353 0.000000
H114  H     H_    0.110697 0.888746 0.546439 0.000000
H115  H     H_    0.084739 0.946907 0.572605 0.000000
H116  H     H_    0.344434 0.989672 0.501920 0.000000
H117  H     H_    0.346968 0.046343 0.400694 0.000000
H118  H     H_    0.934567 0.967096 0.472789 0.000000
H119  H     H_    0.723999 0.045420 0.287889 0.000000
C137  C     C_3   0.369642 0.237390 0.017737 0.000000
C138  C     C_R   0.329858 0.179345 0.018762 0.000000
C139  C     C_R   0.204177 0.157927 0.027466 0.000000
C140  C     C_R   0.183887 0.101200 0.039573 0.000000
C141  C     C_R   0.279062 0.070810 0.029878 0.000000
N35   N     N_R   0.261763 0.019448 0.026627 0.000000
C142  C     C_R   0.353798 0.014751 0.993611 0.000000
N36   N     N_R   0.438016 0.060224 0.982274 0.000000
C143  C     C_R   0.385856 0.094144 0.006753 0.000000
C144  C     C_R   0.422414 0.146336 0.008568 0.000000
S18   S     S_3+2 0.355570 0.952441 0.972546 0.000000
O52   O     O_2   0.282938 0.906769 0.013122 0.000000
O53   O     O_2   0.488846 0.923325 0.979753 0.000000
O54   O     O_3   0.274718 0.952569 0.909167 0.000000
H120  H     H_    0.401948 0.236999 0.060904 0.000000
H121  H     H_    0.291306 0.268815 0.996581 0.000000
H122  H     H_    0.457940 0.248527 0.995661 0.000000
H123  H     H_    0.118556 0.183417 0.020673 0.000000
H124  H     H_    0.089451 0.081615 0.045722 0.000000
H125  H     H_    0.519828 0.160652 0.005378 0.000000
H126  H     H_    0.190358 0.933644 0.917813 0.000000
C145  C     C_3   0.985431 0.861840 0.918461 0.000000
C146  C     C_R   0.919485 0.908248 0.930515 0.000000
C147  C     C_R   0.807319 0.933135 0.896626 0.000000
C148  C     C_R   0.744075 0.976581 0.906842 0.000000
C149  C     C_R   0.794424 0.993572 0.951972 0.000000
N37   N     N_R   0.751587 0.035490 0.969088 0.000000
C150  C     C_R   0.846496 0.035898 0.012859 0.000000
N38   N     N_R   0.944925 0.995759 0.023209 0.000000
C151  C     C_R   0.907163 0.969890 0.984346 0.000000
C152  C     C_R   0.971648 0.927153 0.974674 0.000000
S19   S     S_3+2 0.839604 0.086629 0.049856 0.000000
O55   O     O_2   0.702217 0.112661 0.032812 0.000000
O56   O     O_2   0.922039 0.139452 0.029433 0.000000
O57   O     O_3   0.853722 0.070555 0.120710 0.000000
H127  H     H_    0.916323 0.826353 0.920839 0.000000
H128  H     H_    0.073103 0.847692 0.949339 0.000000
H129  H     H_    0.016038 0.876823 0.876187 0.000000
H130  H     H_    0.770025 0.918926 0.861375 0.000000
H131  H     H_    0.662406 0.997587 0.878317 0.000000
H132  H     H_    0.059844 0.908784 0.000740 0.000000
H133  H     H_    0.762314 0.064084 0.129664 0.000000
C153  C     C_3   0.102545 0.139748 0.926870 0.000000
C154  C     C_R   0.993383 0.173459 0.934758 0.000000
C155  C     C_R   0.011461 0.227899 0.938558 0.000000
C156  C     C_R   0.907607 0.257990 0.945944 0.000000
C157  C     C_R   0.787137 0.232588 0.948559 0.000000
N39   N     N_R   0.670212 0.258031 0.941610 0.000000
C158  C     C_R   0.583807 0.218788 0.930247 0.000000
N40   N     N_R   0.642169 0.167777 0.937465 0.000000
C159  C     C_R   0.770298 0.179233 0.945803 0.000000
C160  C     C_R   0.870674 0.149725 0.936510 0.000000
S20   S     S_3+2 0.426054 0.237939 0.891528 0.000000
O58   O     O_2   0.315690 0.233554 0.927676 0.000000
O59   O     O_2   0.379458 0.197189 0.858212 0.000000
O60   O     O_3   0.407460 0.303292 0.844612 0.000000
H134  H     H_    0.093107 0.137975 0.883610 0.000000
H135  H     H_    0.096440 0.096190 0.954166 0.000000
H136  H     H_    0.198803 0.157174 0.937227 0.000000
H137  H     H_    0.106640 0.247288 0.935478 0.000000
H138  H     H_    0.919452 0.301211 0.945638 0.000000
H139  H     H_    0.854622 0.111048 0.926506 0.000000
H140  H     H_    0.422477 0.329002 0.867693 0.000000
C161  C     C_3   0.898525 0.671065 0.693313 0.000000
C162  C     C_R   0.880133 0.678896 0.632538 0.000000
C163  C     C_R   0.875078 0.732589 0.595612 0.000000
C164  C     C_R   0.861429 0.740913 0.538775 0.000000
C165  C     C_R   0.845126 0.694690 0.519899 0.000000
N41   N     N_R   0.846758 0.692804 0.467319 0.000000
C166  C     C_R   0.887523 0.638702 0.475567 0.000000
N42   N     N_R   0.893932 0.606430 0.529788 0.000000
C167  C     C_R   0.866336 0.642618 0.556503 0.000000
C168  C     C_R   0.880424 0.632930 0.612923 0.000000
S21   S     S_3+2 0.006885 0.625029 0.436848 0.000000
O61   O     O_2   0.067148 0.679402 0.403260 0.000000
O62   O     O_2   0.962805 0.593964 0.393834 0.000000
O63   O     O_3   0.138773 0.589258 0.478769 0.000000
H141  H     H_    0.990173 0.692125 0.704399 0.000000
H142  H     H_    0.905451 0.625658 0.715914 0.000000
H143  H     H_    0.813759 0.689563 0.704984 0.000000
H144  H     H_    0.889214 0.768055 0.611588 0.000000
H145  H     H_    0.881259 0.781400 0.511404 0.000000
H146  H     H_    0.897429 0.591161 0.640987 0.000000
H147  H     H_    0.099514 0.559904 0.507846 0.000000
C169  C     C_3   0.350250 0.515688 0.479213 0.000000
C170  C     C_R   0.395699 0.475222 0.453038 0.000000
C171  C     C_R   0.506181 0.442988 0.479116 0.000000
C172  C     C_R   0.583394 0.423703 0.448442 0.000000
C173  C     C_R   0.545007 0.437343 0.392853 0.000000
N43   N     N_R   0.621925 0.436330 0.354816 0.000000
C174  C     C_R   0.541159 0.457029 0.306012 0.000000
N44   N     N_R   0.417332 0.471409 0.312977 0.000000
C175  C     C_R   0.426263 0.460331 0.368565 0.000000
C176  C     C_R   0.345707 0.478298 0.398693 0.000000
S22   S     S_3+2 0.593468 0.465125 0.240318 0.000000
O64   O     O_2   0.738503 0.481589 0.237788 0.000000
O65   O     O_2   0.525880 0.514951 0.196055 0.000000
O66   O     O_3   0.568674 0.410828 0.212685 0.000000
H148  H     H_    0.381472 0.502278 0.524380 0.000000
H149  H     H_    0.244581 0.519218 0.470613 0.000000
H150  H     H_    0.390507 0.557791 0.460278 0.000000
H151  H     H_    0.541012 0.437380 0.521979 0.000000
H152  H     H_    0.676631 0.403609 0.466739 0.000000
H153  H     H_    0.260449 0.502713 0.377334 0.000000
H154  H     H_    0.479209 0.417183 0.192234 0.000000
C177  C     C_3   0.732766 0.357072 0.168582 0.000000
C178  C     C_R   0.804013 0.397354 0.195023 0.000000
C179  C     C_R   0.894650 0.432002 0.165075 0.000000
C180  C     C_R   0.995325 0.456053 0.191578 0.000000
C181  C     C_R   0.001580 0.446360 0.247996 0.000000
N45   N     N_R   0.084938 0.468936 0.280718 0.000000
C182  C     C_R   0.025998 0.458220 0.328112 0.000000
N46   N     N_R   0.920757 0.423268 0.328214 0.000000
C183  C     C_R   0.906357 0.417486 0.276684 0.000000
C184  C     C_R   0.807725 0.391258 0.251851 0.000000
S23   S     S_3+2 0.008286 0.513633 0.356848 0.000000
O67   O     O_2   0.059433 0.569622 0.321812 0.000000
O68   O     O_2   0.080383 0.506389 0.414775 0.000000
O69   O     O_3   0.848829 0.526592 0.361954 0.000000
H155  H     H_    0.624929 0.358704 0.165772 0.000000
H156  H     H_    0.768831 0.314522 0.192249 0.000000
H157  H     H_    0.758421 0.365844 0.125719 0.000000
H158  H     H_    0.893226 0.436893 0.121274 0.000000
H159  H     H_    0.062375 0.483054 0.167335 0.000000
H160  H     H_    0.740964 0.365686 0.277344 0.000000
H161  H     H_    0.799906 0.515206 0.330868 0.000000
C185  C     C_3   0.313899 0.360462 0.460216 0.000000
C186  C     C_R   0.212947 0.392563 0.475562 0.000000
C187  C     C_R   0.247256 0.415820 0.518204 0.000000
C188  C     C_R   0.158394 0.448046 0.531822 0.000000
C189  C     C_R   0.031782 0.451330 0.507341 0.000000
N47   N     N_R   0.933444 0.483817 0.511603 0.000000
C190  C     C_R   0.838702 0.478013 0.470172 0.000000
N48   N     N_R   0.874089 0.440723 0.444136 0.000000
C191  C     C_R   0.995961 0.425633 0.468033 0.000000
C192  C     C_R   0.085234 0.398565 0.448899 0.000000
S24   S     S_3+2 0.710055 0.528048 0.437920 0.000000
O70   O     O_2   0.761446 0.588304 0.425747 0.000000
O71   O     O_2   0.599809 0.529378 0.472821 0.000000
O72   O     O_3   0.632322 0.525311 0.375321 0.000000
H162  H     H_    0.406524 0.359072 0.488026 0.000000
H163  H     H_    0.331110 0.381290 0.416931 0.000000
H164  H     H_    0.282997 0.316540 0.465784 0.000000
H165  H     H_    0.346512 0.411876 0.538534 0.000000
H166  H     H_    0.194550 0.476580 0.553041 0.000000
H167  H     H_    0.056430 0.386134 0.412138 0.000000
H168  H     H_    0.643679 0.563241 0.350212 0.000000
C193  C     C_3   0.669623 0.945112 0.164526 0.000000
C194  C     C_R   0.796930 0.971423 0.176918 0.000000
C195  C     C_R   0.813769 0.989326 0.223559 0.000000
C196  C     C_R   0.932700 0.009714 0.240319 0.000000
C197  C     C_R   0.028256 0.019843 0.205846 0.000000
N49   N     N_R   0.150386 0.040633 0.212982 0.000000
C198  C     C_R   0.205890 0.032985 0.169109 0.000000
N50   N     N_R   0.120806 0.010589 0.135207 0.000000
C199  C     C_R   0.011348 0.002641 0.159757 0.000000
C200  C     C_R   0.899135 0.976532 0.144904 0.000000
S25   S     S_3+2 0.378571 0.031740 0.167404 0.000000
O73   O     O_2   0.430300 0.078895 0.120867 0.000000
O74   O     O_2   0.410104 0.980378 0.149903 0.000000
O75   O     O_3   0.484121 0.025833 0.226834 0.000000
H169  H     H_    0.682803 0.899548 0.171895 0.000000
H170  H     H_    0.623923 0.967055 0.122043 0.000000
H171  H     H_    0.603520 0.949537 0.194079 0.000000
H172  H     H_    0.734743 0.984530 0.248481 0.000000
H173  H     H_    0.952020 0.010757 0.281484 0.000000
H174  H     H_    0.892617 0.961354 0.109433 0.000000
H175  H     H_    0.487214 0.985170 0.246568 0.000000
C201  C     C_3   0.645754 0.911027 0.065550 0.000000
C202  C     C_R   0.542268 0.884210 0.100538 0.000000
C203  C     C_R   0.562996 0.831252 0.137933 0.000000
C204  C     C_R   0.465366 0.806083 0.169591 0.000000
C205  C     C_R   0.346391 0.832963 0.159054 0.000000
N51   N     N_R   0.237497 0.813799 0.181900 0.000000
C206  C     C_R   0.144457 0.853397 0.152055 0.000000
N52   N     N_R   0.195653 0.898587 0.114820 0.000000
C207  C     C_R   0.323623 0.883555 0.120783 0.000000
C208  C     C_R   0.425212 0.912095 0.095218 0.000000
S26   S     S_3+2 0.973836 0.837770 0.144955 0.000000
O76   O     O_2   0.949609 0.777618 0.142226 0.000000
O77   O     O_2   0.912333 0.870622 0.086551 0.000000
O78   O     O_3   0.871458 0.847415 0.189766 0.000000
H176  H     H_    0.735932 0.912952 0.092545 0.000000
H177  H     H_    0.616925 0.954431 0.040653 0.000000
H178  H     H_    0.665358 0.885341 0.038471 0.000000
H179  H     H_    0.655785 0.810006 0.142749 0.000000
H180  H     H_    0.479516 0.765150 0.198903 0.000000
H181  H     H_    0.417121 0.954709 0.072823 0.000000
H182  H     H_    0.896238 0.884508 0.194139 0.000000
C209  C     C_3   0.759096 0.182116 0.104097 0.000000
C210  C     C_R   0.701031 0.236323 0.105149 0.000000
C211  C     C_R   0.662739 0.249615 0.150124 0.000000
C212  C     C_R   0.547550 0.280139 0.142759 0.000000
C213  C     C_R   0.496409 0.307026 0.089264 0.000000
N53   N     N_R   0.377361 0.331133 0.066962 0.000000
C214  C     C_R   0.392346 0.349140 0.011048 0.000000
N54   N     N_R   0.514018 0.336583 0.999524 0.000000
C215  C     C_R   0.571817 0.309227 0.048831 0.000000
C216  C     C_R   0.676133 0.275125 0.055650 0.000000
S27   S     S_3+2 0.261368 0.379649 0.957972 0.000000
O79   O     O_2   0.127513 0.354697 0.973006 0.000000
O80   O     O_2   0.271192 0.362385 0.905474 0.000000
O81   O     O_3   0.238123 0.450889 0.934435 0.000000
H183  H     H_    0.847250 0.167285 0.134322 0.000000
H184  H     H_    0.779353 0.186639 0.061326 0.000000
H185  H     H_    0.683872 0.148745 0.109440 0.000000
H186  H     H_    0.714014 0.232750 0.190129 0.000000
H187  H     H_    0.502813 0.281493 0.177528 0.000000
H188  H     H_    0.723002 0.271361 0.021948 0.000000
H189  H     H_    0.239911 0.462751 0.968320 0.000000
C217  C     C_3   0.823181 0.557410 0.910408 0.000000
C218  C     C_R   0.885070 0.504454 0.947592 0.000000
C219  C     C_R   0.004571 0.506197 0.979429 0.000000
C220  C     C_R   0.061923 0.457700 0.016067 0.000000
C221  C     C_R   0.002311 0.407611 0.017103 0.000000
N55   N     N_R   0.038442 0.355989 0.050898 0.000000
C222  C     C_R   0.933261 0.324581 0.037468 0.000000
N56   N     N_R   0.838531 0.353448 0.994975 0.000000
C223  C     C_R   0.885331 0.405967 0.984530 0.000000
C224  C     C_R   0.822867 0.453840 0.950684 0.000000
S28   S     S_3+2 0.910873 0.258570 0.083240 0.000000
O82   O     O_2   0.048466 0.276229 0.102170 0.000000
O83   O     O_2   0.981609 0.211213 0.071978 0.000000
O84   O     O_3   0.902846 0.245051 0.153117 0.000000
H190  H     H_    0.804006 0.585262 0.935443 0.000000
H191  H     H_    0.729220 0.547853 0.888374 0.000000
H192  H     H_    0.890173 0.578748 0.879661 0.000000
H193  H     H_    0.051937 0.546062 0.976077 0.000000
H194  H     H_    0.148138 0.459591 0.043903 0.000000
H195  H     H_    0.728032 0.452145 0.927361 0.000000
H196  H     H_    0.989957 0.255982 0.168059 0.000000

loop_
_geom_bond_atom_site_label_1
_geom_bond_atom_site_label_2
_geom_bond_distance
_geom_bond_site_symmetry_2
_ccdc_geom_bond_type
Zn1   N1    2.041 .      S
Zn1   N4    2.066 .      S
Zn1   N30   2.070 .      S
Zn1   N41   2.059 .      S
Zn2   N5    2.056 .      S
Zn2   N32   2.017 .      S
Zn2   N33   1.968 .      S
Zn2   N49   2.045 .      S
Zn3   N6    2.116 .      S
Zn3   N7    2.062 .      S
Zn3   N53   2.086 .      S
Zn3   N55   2.180 .      S
Zn4   N8    2.029 .      S
Zn4   N10   2.039 .      S
Zn4   N44   2.054 .      S
Zn4   N45   1.985 .      S
Zn5   N2    2.063 .      S
Zn5   N3    1.982 .      S
Zn5   N9    1.992 .      S
Zn5   N51   2.005 .      S
Zn6   N12   1.972 .      S
Zn6   N14   2.066 .      S
Zn6   N16   2.018 .      S
Zn6   N17   1.970 .      S
Zn7   N11   1.959 .      S
Zn7   N20   1.973 .      S
Zn7   N22   2.053 .      S
Zn7   N24   2.029 .      S
Zn8   N13   2.084 1_655  S
Zn8   N15   1.983 .      S
Zn8   N25   2.030 .      S
Zn8   N27   1.966 .      S
Zn9   N26   2.073 .      S
Zn9   N29   2.080 1_545  S
Zn9   N31   1.991 .      S
Zn9   N34   1.936 .      S
Zn10  N18   2.021 .      S
Zn10  N36   2.037 .      S
Zn10  N37   2.114 .      S
Zn10  N40   2.028 .      S
Zn11  N21   2.066 1_655  S
Zn11  N23   2.001 .      S
Zn11  N42   2.007 .      S
Zn11  N47   2.036 .      S
Zn12  N28   2.044 .      S
Zn12  N43   1.994 .      S
Zn12  N46   1.987 .      S
Zn12  N48   1.980 .      S
Zn13  N35   1.986 1_565  S
Zn13  N38   2.099 1_455  S
Zn13  N50   1.977 1_565  S
Zn13  N52   2.069 .      S
Zn14  N19   1.971 .      S
Zn14  N39   2.027 .      S
Zn14  N54   2.013 .      S
Zn14  N56   2.154 .      S
C1    C2    1.475 .      S
C1    H1    1.109 .      S
C1    H2    1.106 .      S
C1    H3    1.109 .      S
C3    H4    1.075 .      S
C4    H5    1.080 .      S
C6    S1    1.777 .      S
C8    H6    1.076 .      S
S1    O3    1.714 .      S
O3    H7    0.987 .      S
C9    C10   1.472 .      S
C9    H8    1.109 .      S
C9    H9    1.109 1_455  S
C9    H10   1.104 .      S
C11   H11   1.082 .      S
C12   H12   1.081 .      S
C14   S2    1.773 1_455  S
C16   H13   1.071 1_455  S
S2    C14   1.773 1_655  S
S2    O6    1.716 .      S
O6    H14   0.990 .      S
H9    C9    1.109 1_655  S
H13   C16   1.071 1_655  S
C17   C18   1.464 .      S
C17   H15   1.103 .      S
C17   H16   1.105 .      S
C17   H17   1.109 .      S
C19   H18   1.078 .      S
C20   H19   1.081 .      S
C22   S3    1.745 .      S
C24   H20   1.082 .      S
S3    O9    1.716 .      S
O9    H21   0.985 .      S
C25   C26   1.486 .      S
C25   H22   1.109 .      S
C25   H23   1.109 .      S
C25   H24   1.109 .      S
C27   H25   1.080 .      S
C28   H26   1.075 .      S
C30   S4    1.818 .      S
C32   H27   1.082 .      S
S4    O12   1.712 .      S
O12   H28   0.990 .      S
C33   C34   1.482 .      S
C33   H29   1.109 1_455  S
C33   H30   1.107 .      S
C33   H31   1.109 .      S
C35   H32   1.081 .      S
C36   H33   1.078 .      S
C38   S5    1.783 .      S
C40   H34   1.073 .      S
S5    O15   1.710 .      S
O15   H35   0.988 .      S
H29   C33   1.109 1_655  S
C41   C42   1.482 .      S
C41   H36   1.108 .      S
C41   H37   1.109 1_455  S
C41   H38   1.106 .      S
C43   H39   1.081 .      S
C44   H40   1.079 .      S
C46   S6    1.788 .      S
C48   H41   1.081 .      S
S6    O18   1.715 .      S
O18   H42   0.990 .      S
H37   C41   1.109 1_655  S
C49   C50   1.486 .      S
C49   H43   1.109 1_545  S
C49   H44   1.109 .      S
C49   H45   1.109 .      S
C51   H46   1.064 .      S
C52   H47   1.076 .      S
N13   Zn8   2.084 1_455  S
C54   S7    1.783 .      S
C56   H48   1.078 .      S
S7    O21   1.715 1_455  S
O21   S7    1.715 1_655  S
O21   H49   0.989 .      S
H43   C49   1.109 1_565  S
C57   C58   1.482 .      S
C57   H50   1.107 .      S
C57   H51   1.106 .      S
C57   H52   1.108 .      S
C59   H53   1.081 1_655  S
C60   H54   1.070 .      S
C62   S8    1.781 .      S
C64   H55   1.057 .      S
S8    O24   1.713 .      S
O24   H56   0.990 .      S
H53   C59   1.081 1_455  S
C65   C66   1.488 .      S
C65   H57   1.109 .      S
C65   H58   1.110 .      S
C65   H59   1.109 .      S
C67   H60   1.081 .      S
C68   H61   1.080 .      S
C70   S9    1.782 .      S
C72   H62   1.065 1_545  S
S9    O27   1.716 .      S
O27   H63   0.986 .      S
H62   C72   1.065 1_565  S
C73   C74   1.486 .      S
C73   H64   1.109 .      S
C73   H65   1.109 .      S
C73   H66   1.109 .      S
C75   H67   1.081 .      S
C76   H68   1.081 .      S
C78   S10   1.789 .      S
C80   H69   1.079 .      S
S10   O30   1.715 .      S
O30   H70   0.989 .      S
C81   C82   1.486 .      S
C81   H71   1.102 .      S
C81   H72   1.109 .      S
C81   H73   1.109 .      S
C83   H74   1.081 .      S
C84   H75   1.081 .      S
N21   Zn11  2.066 1_455  S
C86   S11   1.787 .      S
C88   H76   1.081 .      S
S11   O33   1.713 .      S
O33   H77   0.990 .      S
C89   C90   1.479 .      S
C89   H78   1.107 .      S
C89   H79   1.109 1_655  S
C89   H80   1.105 .      S
C91   H81   1.081 .      S
C92   H82   1.063 1_655  S
C94   S12   1.757 .      S
C96   H83   1.058 .      S
S12   O36   1.714 .      S
O36   H84   0.990 .      S
H79   C89   1.109 1_455  S
H82   C92   1.063 1_455  S
C97   C98   1.484 .      S
C97   H85   1.109 .      S
C97   H86   1.105 .      S
C97   H87   1.109 .      S
C99   H88   1.081 .      S
C100  H89   1.070 .      S
C102  S13   1.788 .      S
C104  H90   1.075 .      S
S13   O39   1.719 .      S
O39   H91   0.990 1_655  S
H91   O39   0.990 1_455  S
C105  C106  1.470 .      S
C105  H92   1.109 .      S
C105  H93   1.103 .      S
C105  H94   1.087 .      S
C107  H95   1.082 .      S
C108  H96   1.081 .      S
C110  S14   1.754 1_655  S
C112  H97   1.063 .      S
S14   C110  1.754 1_455  S
S14   O42   1.704 .      S
O42   H98   0.990 .      S
C113  C114  1.480 .      S
C113  H99   1.109 .      S
C113  H100  1.109 .      S
C113  H101  1.109 .      S
C115  H102  1.081 .      S
C116  H103  1.074 .      S
N29   Zn9   2.080 1_565  S
C118  S15   1.780 .      S
C120  H104  1.081 .      S
S15   O45   1.712 .      S
O45   H105  0.988 .      S
C121  C122  1.481 .      S
C121  H106  1.096 .      S
C121  H107  1.109 .      S
C121  H108  1.106 .      S
C123  H109  1.080 .      S
C124  H110  1.068 .      S
C126  S16   1.764 1_545  S
C128  H111  1.073 .      S
S16   C126  1.764 1_565  S
S16   O48   1.693 .      S
O48   H112  0.991 .      S
C129  C130  1.488 .      S
C129  H113  1.109 .      S
C129  H114  1.109 .      S
C129  H115  1.109 .      S
C131  H116  1.077 .      S
C132  H117  1.079 .      S
C134  S17   1.762 .      S
C136  H118  1.069 1_455  S
S17   O51   1.709 .      S
O51   H119  0.988 .      S
H118  C136  1.069 1_655  S
C137  C138  1.487 .      S
C137  H120  1.103 .      S
C137  H121  1.111 1_554  S
C137  H122  1.109 1_554  S
C139  H123  1.068 .      S
C140  H124  1.079 .      S
N35   Zn13  1.986 1_545  S
C142  S18   1.791 1_545  S
C144  H125  1.055 .      S
S18   C142  1.791 1_565  S
S18   O54   1.716 .      S
O54   H126  0.990 .      S
H121  C137  1.111 1_556  S
H122  C137  1.109 1_556  S
C145  C146  1.486 .      S
C145  H127  1.109 .      S
C145  H128  1.109 1_655  S
C145  H129  1.109 1_655  S
C147  H130  1.081 .      S
C148  H131  1.074 .      S
C150  S19   1.795 .      S
N38   Zn13  2.099 1_655  S
C152  H132  1.080 1_656  S
S19   O57   1.712 .      S
O57   H133  0.990 .      S
H128  C145  1.109 1_455  S
H129  C145  1.109 1_455  S
H132  C152  1.080 1_454  S
C153  C154  1.490 1_455  S
C153  H134  1.105 .      S
C153  H135  1.108 .      S
C153  H136  1.100 .      S
C154  C153  1.490 1_655  S
C155  H137  1.077 .      S
C156  H138  1.080 .      S
C158  S20   1.786 .      S
C160  H139  1.072 .      S
S20   O60   1.712 .      S
O60   H140  0.987 .      S
C161  C162  1.486 .      S
C161  H141  1.109 .      S
C161  H142  1.109 .      S
C161  H143  1.109 .      S
C163  H144  1.077 .      S
C164  H145  1.073 .      S
C166  S21   1.764 1_655  S
C168  H146  1.080 .      S
S21   C166  1.764 1_455  S
S21   O63   1.709 .      S
O63   H147  0.989 .      S
C169  C170  1.479 .      S
C169  H148  1.104 .      S
C169  H149  1.080 .      S
C169  H150  1.109 .      S
C171  H151  1.072 .      S
C172  H152  1.080 .      S
C174  S22   1.769 .      S
C176  H153  1.073 .      S
S22   O66   1.701 .      S
O66   H154  0.990 .      S
C177  C178  1.493 .      S
C177  H155  1.101 .      S
C177  H156  1.104 .      S
C177  H157  1.109 .      S
C179  H158  1.081 .      S
C180  H159  1.066 1_655  S
C182  S23   1.769 .      S
C184  H160  1.065 .      S
S23   O69   1.706 1_455  S
O69   S23   1.706 1_655  S
O69   H161  0.991 .      S
H159  C180  1.066 1_455  S
C185  C186  1.486 .      S
C185  H162  1.106 .      S
C185  H163  1.102 .      S
C185  H164  1.105 .      S
C187  H165  1.077 .      S
C188  H166  1.047 .      S
C190  S24   1.791 .      S
C192  H167  1.074 .      S
S24   O72   1.707 .      S
O72   H168  0.985 .      S
C193  C194  1.484 .      S
C193  H169  1.107 .      S
C193  H170  1.107 .      S
C193  H171  1.103 .      S
C195  H172  1.072 .      S
C196  H173  1.048 .      S
C198  S25   1.779 .      S
N50   Zn13  1.977 1_545  S
C200  H174  1.071 .      S
S25   O75   1.716 .      S
O75   H175  0.990 1_545  S
H175  O75   0.990 1_565  S
C201  C202  1.484 .      S
C201  H176  1.090 .      S
C201  H177  1.109 .      S
C201  H178  1.109 .      S
C203  H179  1.081 .      S
C204  H180  1.073 .      S
C206  S26   1.780 1_455  S
C208  H181  1.048 .      S
S26   C206  1.780 1_655  S
S26   O78   1.713 .      S
O78   H182  0.987 .      S
C209  C210  1.506 .      S
C209  H183  1.107 .      S
C209  H184  1.104 .      S
C209  H185  1.107 .      S
C211  H186  1.056 .      S
C212  H187  1.054 .      S
C214  S27   1.792 1_554  S
C216  H188  1.061 .      S
S27   C214  1.792 1_556  S
S27   O81   1.715 .      S
O81   H189  0.988 .      S
C217  C218  1.486 .      S
C217  H190  1.109 .      S
C217  H191  1.109 .      S
C217  H192  1.109 .      S
C219  H193  1.079 .      S
C220  H194  1.071 .      S
C222  S28   1.740 .      S
C224  H195  1.081 .      S
S28   O84   1.718 .      S
O84   H196  0.989 .      S
C2    C3    1.385 .      A
C2    C8    1.384 .      A
C3    C4    1.377 .      A
C4    C5    1.358 .      A
C5    N1    1.331 .      A
C5    C7    1.359 .      A
N1    C6    1.380 .      A
C6    N2    1.382 .      A
N2    C7    1.351 .      A
C7    C8    1.373 .      A
C10   C11   1.393 .      A
C10   C16   1.378 .      A
C11   C12   1.373 .      A
C12   C13   1.359 .      A
C13   N3    1.323 .      A
C13   C15   1.353 .      A
N3    C14   1.363 .      A
C14   N4    1.391 1_455  A
N4    C14   1.391 1_655  A
N4    C15   1.345 1_655  A
C15   N4    1.345 1_455  A
C15   C16   1.362 .      A
C18   C19   1.386 .      A
C18   C24   1.379 .      A
C19   C20   1.376 .      A
C20   C21   1.368 .      A
C21   N5    1.331 .      A
C21   C23   1.362 .      A
N5    C22   1.380 .      A
C22   N6    1.380 .      A
N6    C23   1.344 .      A
C23   C24   1.363 .      A
C26   C27   1.389 .      A
C26   C32   1.384 .      A
C27   C28   1.385 .      A
C28   C29   1.375 .      A
C29   N7    1.353 .      A
C29   C31   1.364 .      A
N7    C30   1.388 .      A
C30   N8    1.381 .      A
N8    C31   1.345 .      A
C31   C32   1.378 .      A
C34   C35   1.390 .      A
C34   C40   1.385 .      A
C35   C36   1.383 .      A
C36   C37   1.372 .      A
C37   N9    1.341 .      A
C37   C39   1.363 .      A
N9    C38   1.368 .      A
C38   N10   1.379 .      A
N10   C39   1.351 .      A
C39   C40   1.371 .      A
C42   C43   1.391 .      A
C42   C48   1.387 .      A
C43   C44   1.384 .      A
C44   C45   1.371 .      A
C45   N11   1.340 .      A
C45   C47   1.351 .      A
N11   C46   1.371 .      A
C46   N12   1.372 .      A
N12   C47   1.341 .      A
C47   C48   1.371 .      A
C50   C51   1.387 .      A
C50   C56   1.378 .      A
C51   C52   1.382 .      A
C52   C53   1.367 .      A
C53   N13   1.347 .      A
C53   C55   1.365 .      A
N13   C54   1.383 .      A
C54   N14   1.387 .      A
N14   C55   1.339 .      A
C55   C56   1.370 .      A
C58   C59   1.381 .      A
C58   C64   1.384 .      A
C59   C60   1.376 .      A
C60   C61   1.378 .      A
C61   N15   1.342 .      A
C61   C63   1.356 .      A
N15   C62   1.379 .      A
C62   N16   1.360 .      A
N16   C63   1.355 .      A
C63   C64   1.373 .      A
C66   C67   1.391 .      A
C66   C72   1.388 1_565  A
C67   C68   1.384 1_565  A
C68   C67   1.384 1_545  A
C68   C69   1.371 .      A
C69   N17   1.338 .      A
C69   C71   1.358 .      A
N17   C70   1.368 .      A
C70   N18   1.374 .      A
N18   C71   1.349 .      A
C71   C72   1.364 .      A
C72   C66   1.388 1_545  A
C74   C75   1.393 .      A
C74   C80   1.386 .      A
C75   C76   1.387 .      A
C76   C77   1.372 .      A
C77   N19   1.346 .      A
C77   C79   1.360 .      A
N19   C78   1.367 .      A
C78   N20   1.371 .      A
N20   C79   1.343 .      A
C79   C80   1.371 .      A
C82   C83   1.394 .      A
C82   C88   1.384 .      A
C83   C84   1.388 .      A
C84   C85   1.372 .      A
C85   N21   1.348 .      A
C85   C87   1.369 .      A
N21   C86   1.381 .      A
C86   N22   1.379 .      A
N22   C87   1.345 .      A
C87   C88   1.370 .      A
C90   C91   1.377 1_655  A
C90   C96   1.380 .      A
C91   C90   1.377 1_455  A
C91   C92   1.375 1_455  A
C92   C91   1.375 1_655  A
C92   C93   1.378 .      A
C93   N23   1.344 .      A
C93   C95   1.358 .      A
N23   C94   1.369 .      A
C94   N24   1.368 .      A
N24   C95   1.354 .      A
C95   C96   1.374 .      A
C98   C99   1.384 .      A
C98   C104  1.387 .      A
C99   C100  1.377 1_565  A
C100  C99   1.377 1_545  A
C100  C101  1.367 .      A
C101  N25   1.340 .      A
C101  C103  1.366 .      A
N25   C102  1.368 .      A
C102  N26   1.387 .      A
N26   C103  1.362 .      A
C103  C104  1.388 1_545  A
C104  C103  1.388 1_565  A
C106  C107  1.387 .      A
C106  C112  1.372 .      A
C107  C108  1.384 .      A
C108  C109  1.372 .      A
C109  N27   1.335 .      A
C109  C111  1.357 .      A
N27   C110  1.357 .      A
C110  N28   1.380 .      A
N28   C111  1.348 .      A
C111  C112  1.362 .      A
C114  C115  1.390 .      A
C114  C120  1.382 .      A
C115  C116  1.383 .      A
C116  C117  1.369 .      A
C117  N29   1.347 .      A
C117  C119  1.362 .      A
N29   C118  1.391 .      A
C118  N30   1.373 .      A
N30   C119  1.343 .      A
C119  C120  1.372 .      A
C122  C123  1.401 .      A
C122  C128  1.353 .      A
C123  C124  1.368 .      A
C124  C125  1.344 .      A
C125  N31   1.327 .      A
C125  C127  1.346 .      A
N31   C126  1.364 .      A
C126  N32   1.383 .      A
N32   C127  1.322 .      A
C127  C128  1.345 .      A
C130  C131  1.388 .      A
C130  C136  1.370 .      A
C131  C132  1.398 1_565  A
C132  C131  1.398 1_545  A
C132  C133  1.375 .      A
C133  N33   1.350 .      A
C133  C135  1.346 .      A
N33   C134  1.356 1_455  A
C134  N33   1.356 1_655  A
C134  N34   1.363 .      A
N34   C135  1.329 1_655  A
C135  N34   1.329 1_455  A
C135  C136  1.356 1_545  A
C136  C135  1.356 1_565  A
C138  C139  1.398 .      A
C138  C144  1.374 .      A
C139  C140  1.372 .      A
C140  C141  1.345 .      A
C141  N35   1.315 .      A
C141  C143  1.342 .      A
N35   C142  1.368 1_554  A
C142  N35   1.368 1_556  A
C142  N36   1.387 .      A
N36   C143  1.348 1_556  A
C143  N36   1.348 1_554  A
C143  C144  1.357 .      A
C146  C147  1.391 .      A
C146  C152  1.384 .      A
C147  C148  1.386 .      A
C148  C149  1.374 .      A
C149  N37   1.351 1_565  A
C149  C151  1.372 .      A
N37   C149  1.351 1_545  A
N37   C150  1.386 1_556  A
C150  N37   1.386 1_554  A
C150  N38   1.392 1_545  A
N38   C150  1.392 1_565  A
N38   C151  1.345 1_554  A
C151  N38   1.345 1_556  A
C151  C152  1.371 .      A
C154  C155  1.396 1_655  A
C154  C160  1.374 .      A
C155  C154  1.396 1_455  A
C155  C156  1.386 1_455  A
C156  C155  1.386 1_655  A
C156  C157  1.371 .      A
C157  N39   1.343 .      A
C157  C159  1.359 .      A
N39   C158  1.370 .      A
C158  N40   1.378 .      A
N40   C159  1.341 .      A
C159  C160  1.369 .      A
C162  C163  1.388 .      A
C162  C168  1.381 .      A
C163  C164  1.386 .      A
C164  C165  1.374 .      A
C165  N41   1.353 .      A
C165  C167  1.362 .      A
N41   C166  1.375 .      A
C166  N42   1.369 .      A
N42   C167  1.336 .      A
C167  C168  1.371 .      A
C170  C171  1.389 .      A
C170  C176  1.392 .      A
C171  C172  1.367 .      A
C172  C173  1.360 .      A
C173  N43   1.328 .      A
C173  C175  1.358 .      A
N43   C174  1.372 .      A
C174  N44   1.378 .      A
N44   C175  1.348 .      A
C175  C176  1.362 .      A
C178  C179  1.388 .      A
C178  C184  1.402 .      A
C179  C180  1.381 .      A
C180  C181  1.374 1_655  A
C181  C180  1.374 1_455  A
C181  N45   1.345 .      A
C181  C183  1.351 1_455  A
N45   C182  1.366 .      A
C182  N46   1.366 1_455  A
N46   C182  1.366 1_655  A
N46   C183  1.349 .      A
C183  C181  1.351 1_655  A
C183  C184  1.376 .      A
C186  C187  1.378 .      A
C186  C192  1.389 .      A
C187  C188  1.375 .      A
C188  C189  1.363 .      A
C189  N47   1.349 1_455  A
C189  C191  1.348 1_455  A
N47   C189  1.349 1_655  A
N47   C190  1.378 .      A
C190  N48   1.373 .      A
N48   C191  1.334 .      A
C191  C189  1.348 1_655  A
C191  C192  1.371 1_655  A
C192  C191  1.371 1_455  A
C194  C195  1.375 .      A
C194  C200  1.386 .      A
C195  C196  1.374 1_565  A
C196  C195  1.374 1_545  A
C196  C197  1.363 1_655  A
C197  C196  1.363 1_455  A
C197  N49   1.353 .      A
C197  C199  1.352 .      A
N49   C198  1.376 .      A
C198  N50   1.372 .      A
N50   C199  1.333 .      A
C199  C200  1.372 1_445  A
C200  C199  1.372 1_665  A
C202  C203  1.386 .      A
C202  C208  1.380 .      A
C203  C204  1.380 .      A
C204  C205  1.371 .      A
C205  N51   1.333 .      A
C205  C207  1.353 .      A
N51   C206  1.379 .      A
C206  N52   1.377 .      A
N52   C207  1.355 .      A
C207  C208  1.365 .      A
C210  C211  1.384 .      A
C210  C216  1.341 .      A
C211  C212  1.390 .      A
C212  C213  1.370 .      A
C213  N53   1.360 .      A
C213  C215  1.349 .      A
N53   C214  1.384 .      A
C214  N54   1.383 1_554  A
N54   C214  1.383 1_556  A
N54   C215  1.312 1_556  A
C215  N54   1.312 1_554  A
C215  C216  1.352 .      A
C218  C219  1.389 1_655  A
C218  C224  1.383 .      A
C219  C218  1.389 1_455  A
C219  C220  1.386 1_556  A
C220  C219  1.386 1_554  A
C220  C221  1.369 .      A
C221  N55   1.354 .      A
C221  C223  1.377 1_454  A
N55   C222  1.381 1_455  A
C222  N55   1.381 1_655  A
C222  N56   1.397 1_554  A
N56   C222  1.397 1_556  A
N56   C223  1.344 .      A
C223  C221  1.377 1_656  A
C223  C224  1.372 .      A
S1    O1    1.528 .      D
S1    O2    1.534 .      D
S2    O4    1.533 .      D
S2    O5    1.537 .      D
S3    O7    1.529 .      D
S3    O8    1.532 .      D
S4    O10   1.521 .      D
S4    O11   1.521 .      D
S5    O13   1.531 .      D
S5    O14   1.526 .      D
S6    O16   1.536 .      D
S6    O17   1.536 .      D
S7    O19   1.536 1_455  D
S7    O20   1.532 .      D
O19   S7    1.536 1_655  D
S8    O22   1.534 .      D
S8    O23   1.536 .      D
S9    O25   1.529 .      D
S9    O26   1.532 .      D
S10   O28   1.535 .      D
S10   O29   1.536 .      D
S11   O31   1.534 .      D
S11   O32   1.535 .      D
S12   O34   1.537 .      D
S12   O35   1.536 .      D
S13   O37   1.534 .      D
S13   O38   1.538 .      D
S14   O40   1.534 .      D
S14   O41   1.532 .      D
S15   O43   1.534 .      D
S15   O44   1.534 .      D
S16   O46   1.534 .      D
S16   O47   1.521 .      D
S17   O49   1.533 .      D
S17   O50   1.531 .      D
S18   O52   1.536 1_556  D
S18   O53   1.535 .      D
O52   S18   1.536 1_554  D
S19   O55   1.529 .      D
S19   O56   1.535 .      D
S20   O58   1.526 .      D
S20   O59   1.536 .      D
S21   O61   1.531 .      D
S21   O62   1.535 1_455  D
O62   S21   1.535 1_655  D
S22   O64   1.535 .      D
S22   O65   1.525 .      D
S23   O67   1.534 .      D
S23   O68   1.525 .      D
S24   O70   1.533 .      D
S24   O71   1.529 .      D
S25   O73   1.535 .      D
S25   O74   1.533 1_545  D
O74   S25   1.533 1_565  D
S26   O76   1.535 .      D
S26   O77   1.533 .      D
S27   O79   1.534 .      D
S27   O80   1.534 .      D
S28   O82   1.528 1_655  D
S28   O83   1.522 .      D
O82   S28   1.528 1_455  D
