data_str_m1_o12014_ITG
_audit_creation_date              2015-10-01T06:36:23-0700
_symmetry_space_group_name_H-M    P1
_symmetry_Int_Tables_number       1
_space_group_crystal_system       triclinic
loop_
_symmetry_equiv_pos_as_xyz
  x,y,z
_cell_length_a                    27.2431576
_cell_length_b                    26.9878440
_cell_length_c                    44.9061073
_cell_angle_alpha                 92.2882517
_cell_angle_beta                  89.8294037
_cell_angle_gamma                 91.3674606
_cell_volume                      32980.7104638

loop_
_atom_site_label
_atom_site_type_symbol
_atom_site_description
_atom_site_fract_x
_atom_site_fract_y
_atom_site_fract_z
_atom_type_partial_charge
Zn1   Zn    Zn3+2 0.097883 0.697602 0.654593 0.000000
Zn2   Zn    Zn3+2 0.426080 0.733227 0.722681 0.000000
Zn3   Zn    Zn3+2 0.208261 0.330612 0.777726 0.000000
Zn4   Zn    Zn3+2 0.151540 0.526855 0.861349 0.000000
Zn5   Zn    Zn3+2 0.226611 0.714424 0.785052 0.000000
Zn6   Zn    Zn3+2 0.421720 0.109739 0.709475 0.000000
Zn7   Zn    Zn3+2 0.180937 0.845118 0.235742 0.000000
Zn8   Zn    Zn3+2 0.174991 0.594883 0.234340 0.000000
Zn9   Zn    Zn3+2 0.593092 0.840597 0.491126 0.000000
Zn10  Zn    Zn3+2 0.312696 0.843084 0.356440 0.000000
Zn11  Zn    Zn3+2 0.570692 0.919406 0.734250 0.000000
Zn12  Zn    Zn3+2 0.310743 0.909606 0.114474 0.000000
Zn13  Zn    Zn3+2 0.312947 0.527940 0.114657 0.000000
Zn14  Zn    Zn3+2 0.717608 0.840910 0.619340 0.000000
Zn15  Zn    Zn3+2 0.707340 0.590352 0.615647 0.000000
Zn16  Zn    Zn3+2 0.561299 0.537315 0.731752 0.000000
Zn17  Zn    Zn3+2 0.274302 0.329777 0.576544 0.000000
Zn18  Zn    Zn3+2 0.585549 0.590686 0.488578 0.000000
Zn19  Zn    Zn3+2 0.310745 0.597018 0.358779 0.000000
Zn20  Zn    Zn3+2 0.292952 0.091844 0.583674 0.000000
Zn21  Zn    Zn3+2 0.801970 0.338752 0.194542 0.000000
Zn22  Zn    Zn3+2 0.068849 0.310165 0.653130 0.000000
Zn23  Zn    Zn3+2 0.800970 0.720049 0.195005 0.000000
Zn24  Zn    Zn3+2 0.452709 0.720575 0.141036 0.000000
Zn25  Zn    Zn3+2 0.591232 0.728974 0.263067 0.000000
Zn26  Zn    Zn3+2 0.358500 0.901802 0.494929 0.000000
Zn27  Zn    Zn3+2 0.663697 0.720107 0.073584 0.000000
Zn28  Zn    Zn3+2 0.546351 0.541616 0.347479 0.000000
Zn29  Zn    Zn3+2 0.546405 0.911568 0.357815 0.000000
Zn30  Zn    Zn3+2 0.949198 0.907386 0.195735 0.000000
Zn31  Zn    Zn3+2 0.939948 0.878903 0.665592 0.000000
Zn32  Zn    Zn3+2 0.354771 0.523473 0.495988 0.000000
Zn33  Zn    Zn3+2 0.932157 0.510088 0.662579 0.000000
Zn34  Zn    Zn3+2 0.933360 0.574967 0.809164 0.000000
Zn35  Zn    Zn3+2 0.407973 0.345855 0.703800 0.000000
Zn36  Zn    Zn3+2 0.804398 0.106237 0.192664 0.000000
Zn37  Zn    Zn3+2 0.080800 0.078877 0.663342 0.000000
Zn38  Zn    Zn3+2 0.146240 0.905051 0.858560 0.000000
Zn39  Zn    Zn3+2 0.949238 0.531792 0.182475 0.000000
Zn40  Zn    Zn3+2 0.737118 0.529750 0.989064 0.000000
Zn41  Zn    Zn3+2 0.742818 0.901836 0.987885 0.000000
Zn42  Zn    Zn3+2 0.952328 0.845712 0.050400 0.000000
Zn43  Zn    Zn3+2 0.937273 0.824663 0.804391 0.000000
Zn44  Zn    Zn3+2 0.714121 0.838705 0.846296 0.000000
Zn45  Zn    Zn3+2 0.957748 0.596291 0.043877 0.000000
Zn46  Zn    Zn3+2 0.312174 0.718915 0.590751 0.000000
Zn47  Zn    Zn3+2 0.172430 0.843811 0.000764 0.000000
Zn48  Zn    Zn3+2 0.594138 0.342410 0.261872 0.000000
Zn49  Zn    Zn3+2 0.588403 0.102319 0.263815 0.000000
Zn50  Zn    Zn3+2 0.677334 0.340135 0.064611 0.000000
Zn51  Zn    Zn3+2 0.685131 0.104272 0.060518 0.000000
Zn52  Zn    Zn3+2 0.214148 0.100305 0.787590 0.000000
Zn53  Zn    Zn3+2 0.468737 0.340489 0.136774 0.000000
Zn54  Zn    Zn3+2 0.180897 0.595980 0.997066 0.000000
Zn55  Zn    Zn3+2 0.708418 0.586089 0.844957 0.000000
Zn56  Zn    Zn3+2 0.471932 0.098707 0.131800 0.000000
C1    C     C_3   0.438096 0.630583 0.656869 0.000000
C2    C     C_3   0.434639 0.681459 0.645569 0.000000
C3    C     C_3   0.442965 0.680721 0.613457 0.000000
C4    C     C_R   0.389069 0.708171 0.653985 0.000000
N1    N     N_R   0.354628 0.726025 0.633375 0.000000
C5    C     C_R   0.345020 0.770229 0.646789 0.000000
C6    C     C_R   0.316788 0.806300 0.636035 0.000000
C7    C     C_R   0.315572 0.851639 0.651001 0.000000
C8    C     C_R   0.342059 0.859571 0.676996 0.000000
C9    C     C_R   0.372722 0.823893 0.686286 0.000000
C10   C     C_R   0.370952 0.778389 0.672172 0.000000
N2    N     N_R   0.394640 0.737834 0.679562 0.000000
C11   C     C_2   0.327609 0.897551 0.698902 0.000000
O1    O     O_2   0.287597 0.915226 0.696615 0.000000
O2    O     O_2   0.349941 0.900734 0.725620 0.000000
H1    H     H_    0.402886 0.621217 0.667191 0.000000
H2    H     H_    0.447439 0.603114 0.639064 0.000000
H3    H     H_    0.469089 0.631027 0.672435 0.000000
H4    H     H_    0.465462 0.703126 0.655947 0.000000
H5    H     H_    0.455779 0.717653 0.607669 0.000000
H6    H     H_    0.470703 0.653324 0.606467 0.000000
H7    H     H_    0.408107 0.673213 0.602488 0.000000
H8    H     H_    0.297935 0.799818 0.615821 0.000000
H9    H     H_    0.293595 0.880268 0.642280 0.000000
H10   H     H_    0.394168 0.830841 0.705627 0.000000
H11   H     H_    0.334238 0.916195 0.742739 0.000000
C12   C     C_3   0.345130 0.453651 0.741327 0.000000
C13   C     C_3   0.299289 0.422180 0.746402 0.000000
C14   C     C_3   0.256801 0.435365 0.727267 0.000000
C15   C     C_R   0.308005 0.367804 0.745611 0.000000
N3    N     N_R   0.355108 0.350005 0.740160 0.000000
C16   C     C_R   0.362177 0.324229 0.765068 0.000000
C17   C     C_R   0.404270 0.303358 0.774833 0.000000
C18   C     C_R   0.404506 0.283317 0.802669 0.000000
C19   C     C_R   0.362807 0.284211 0.820542 0.000000
C20   C     C_R   0.319921 0.303464 0.809896 0.000000
C21   C     C_R   0.320635 0.322499 0.782014 0.000000
N4    N     N_R   0.283632 0.343741 0.768165 0.000000
C22   C     C_2   0.364568 0.265915 0.850814 0.000000
O3    O     O_2   0.403145 0.251983 0.860873 0.000000
O4    O     O_2   0.324052 0.265931 0.868008 0.000000
H12   H     H_    0.369938 0.436333 0.724771 0.000000
H13   H     H_    0.334928 0.490717 0.734005 0.000000
H14   H     H_    0.364824 0.458602 0.762779 0.000000
H15   H     H_    0.287419 0.431653 0.769483 0.000000
H16   H     H_    0.237738 0.401496 0.718522 0.000000
H17   H     H_    0.229951 0.456171 0.740799 0.000000
H18   H     H_    0.269684 0.458994 0.709396 0.000000
H19   H     H_    0.437452 0.305030 0.762522 0.000000
H20   H     H_    0.438239 0.268271 0.810601 0.000000
H21   H     H_    0.286880 0.303534 0.822957 0.000000
H22   H     H_    0.325589 0.254431 0.888069 0.000000
C23   C     C_3   0.286833 0.418495 0.846591 0.000000
C24   C     C_3   0.235248 0.397780 0.851007 0.000000
C25   C     C_3   0.218472 0.401499 0.883104 0.000000
C26   C     C_R   0.198760 0.418760 0.830641 0.000000
N5    N     N_R   0.173412 0.462876 0.836123 0.000000
C27   C     C_R   0.148327 0.465077 0.810702 0.000000
C28   C     C_R   0.121805 0.503920 0.802041 0.000000
C29   C     C_R   0.093773 0.497379 0.777095 0.000000
C30   C     C_R   0.102467 0.457761 0.758015 0.000000
C31   C     C_R   0.139981 0.426715 0.763264 0.000000
C32   C     C_R   0.157629 0.426709 0.791504 0.000000
N6    N     N_R   0.188216 0.394815 0.803299 0.000000
C33   C     C_2   0.070017 0.447835 0.733414 0.000000
O5    O     O_2   0.037222 0.475883 0.729486 0.000000
O6    O     O_2   0.074112 0.407292 0.715619 0.000000
H23   H     H_    0.292725 0.454153 0.858712 0.000000
H24   H     H_    0.313383 0.392024 0.855143 0.000000
H25   H     H_    0.293792 0.422914 0.822524 0.000000
H26   H     H_    0.237828 0.358517 0.844374 0.000000
H27   H     H_    0.178717 0.392277 0.884010 0.000000
H28   H     H_    0.239504 0.375521 0.896343 0.000000
H29   H     H_    0.224198 0.439112 0.892666 0.000000
H30   H     H_    0.123435 0.538739 0.813821 0.000000
H31   H     H_    0.066616 0.523935 0.772064 0.000000
H32   H     H_    0.153460 0.403512 0.745855 0.000000
H33   H     H_    0.050773 0.400617 0.699759 0.000000
C34   C     C_3   0.287275 0.560900 0.822416 0.000000
C35   C     C_3   0.247612 0.575180 0.801010 0.000000
C36   C     C_3   0.233937 0.530055 0.781639 0.000000
C37   C     C_R   0.206700 0.604286 0.816064 0.000000
N7    N     N_R   0.186904 0.590474 0.843162 0.000000
C38   C     C_R   0.191264 0.633808 0.859326 0.000000
C39   C     C_R   0.196025 0.639184 0.889511 0.000000
C40   C     C_R   0.230481 0.672959 0.900786 0.000000
C41   C     C_R   0.253279 0.705688 0.882007 0.000000
C42   C     C_R   0.236729 0.708168 0.853393 0.000000
C43   C     C_R   0.206730 0.671057 0.841993 0.000000
N8    N     N_R   0.209520 0.655575 0.813499 0.000000
C44   C     C_2   0.297229 0.734942 0.890920 0.000000
O7    O     O_2   0.313191 0.767258 0.875144 0.000000
O8    O     O_2   0.322207 0.724256 0.915401 0.000000
H34   H     H_    0.285519 0.521108 0.826958 0.000000
H35   H     H_    0.323354 0.567837 0.811778 0.000000
H36   H     H_    0.284726 0.582847 0.843588 0.000000
H37   H     H_    0.266321 0.601360 0.786292 0.000000
H38   H     H_    0.263506 0.525947 0.764839 0.000000
H39   H     H_    0.233716 0.496141 0.794314 0.000000
H40   H     H_    0.198748 0.533281 0.770047 0.000000
H41   H     H_    0.175388 0.617234 0.904247 0.000000
H42   H     H_    0.239871 0.672761 0.923980 0.000000
H43   H     H_    0.259289 0.727533 0.838217 0.000000
H44   H     H_    0.352473 0.742255 0.920031 0.000000
C45   C     C_3   0.308250 0.806007 0.739454 0.000000
C46   C     C_3   0.294273 0.752907 0.734726 0.000000
C47   C     C_3   0.284631 0.732948 0.703344 0.000000
C48   C     C_R   0.322753 0.722465 0.752799 0.000000
N9    N     N_R   0.372710 0.719152 0.752773 0.000000
C49   C     C_R   0.380974 0.697596 0.778885 0.000000
C50   C     C_R   0.425190 0.687405 0.791660 0.000000
C51   C     C_R   0.425305 0.664746 0.818592 0.000000
C52   C     C_R   0.381456 0.655007 0.833091 0.000000
C53   C     C_R   0.337593 0.668197 0.820569 0.000000
C54   C     C_R   0.337975 0.688835 0.793230 0.000000
N10   N     N_R   0.300127 0.705188 0.777239 0.000000
C55   C     C_2   0.381547 0.632129 0.862095 0.000000
O9    O     O_2   0.417549 0.610697 0.870290 0.000000
O10   O     O_2   0.342297 0.635527 0.880133 0.000000
H45   H     H_    0.348256 0.810640 0.742028 0.000000
H46   H     H_    0.290527 0.825443 0.721807 0.000000
H47   H     H_    0.291786 0.820745 0.760186 0.000000
H48   H     H_    0.260871 0.750288 0.746755 0.000000
H49   H     H_    0.250391 0.711194 0.702748 0.000000
H50   H     H_    0.278032 0.763284 0.688238 0.000000
H51   H     H_    0.313327 0.707005 0.696138 0.000000
H52   H     H_    0.459122 0.699945 0.782514 0.000000
H53   H     H_    0.459991 0.656644 0.828679 0.000000
H54   H     H_    0.304172 0.659392 0.831326 0.000000
H55   H     H_    0.344057 0.624047 0.900156 0.000000
C56   C     C_3   0.227370 0.623555 0.730507 0.000000
C57   C     C_3   0.173103 0.630955 0.725281 0.000000
C58   C     C_3   0.144828 0.612392 0.750761 0.000000
C59   C     C_R   0.162123 0.683642 0.722578 0.000000
N11   N     N_R   0.182364 0.717481 0.743448 0.000000
C60   C     C_R   0.175571 0.760155 0.729496 0.000000
C61   C     C_R   0.192682 0.806962 0.737723 0.000000
C62   C     C_R   0.192711 0.842566 0.716764 0.000000
C63   C     C_R   0.173127 0.831334 0.689059 0.000000
C64   C     C_R   0.150320 0.786854 0.682547 0.000000
C65   C     C_R   0.153453 0.751447 0.702591 0.000000
N12   N     N_R   0.139558 0.704303 0.697671 0.000000
C66   C     C_2   0.179583 0.864061 0.665252 0.000000
O11   O     O_2   0.214808 0.891958 0.664774 0.000000
O12   O     O_2   0.149814 0.859316 0.641917 0.000000
H56   H     H_    0.240338 0.646592 0.749718 0.000000
H57   H     H_    0.233368 0.584273 0.734383 0.000000
H58   H     H_    0.250042 0.632263 0.711082 0.000000
H59   H     H_    0.161656 0.609595 0.706146 0.000000
H60   H     H_    0.119740 0.641523 0.758381 0.000000
H61   H     H_    0.126840 0.576491 0.744461 0.000000
H62   H     H_    0.169995 0.607282 0.768431 0.000000
H63   H     H_    0.209258 0.815298 0.758924 0.000000
H64   H     H_    0.209850 0.878310 0.721652 0.000000
H65   H     H_    0.132166 0.779208 0.661895 0.000000
H66   H     H_    0.155877 0.879125 0.625123 0.000000
C67   C     C_3   0.378231 0.215127 0.659809 0.000000
C68   C     C_3   0.372344 0.227597 0.691893 0.000000
C69   C     C_3   0.344083 0.188886 0.706776 0.000000
C70   C     C_R   0.420103 0.229701 0.704336 0.000000
N13   N     N_R   0.443946 0.188284 0.713697 0.000000
C71   C     C_R   0.484481 0.210366 0.726128 0.000000
C72   C     C_R   0.519027 0.189586 0.743643 0.000000
C73   C     C_R   0.559305 0.218208 0.752633 0.000000
C74   C     C_R   0.564447 0.267137 0.744407 0.000000
C75   C     C_R   0.526340 0.289372 0.729767 0.000000
C76   C     C_R   0.485839 0.260658 0.721679 0.000000
N14   N     N_R   0.443460 0.275021 0.709241 0.000000
C77   C     C_2   0.610953 0.294182 0.750631 0.000000
O13   O     O_2   0.640947 0.277253 0.767306 0.000000
O14   O     O_2   0.622073 0.336171 0.736679 0.000000
H67   H     H_    0.417426 0.209587 0.654908 0.000000
H68   H     H_    0.354507 0.183416 0.652329 0.000000
H69   H     H_    0.367641 0.247769 0.648816 0.000000
H70   H     H_    0.357502 0.264618 0.696489 0.000000
H71   H     H_    0.352398 0.152870 0.696526 0.000000
H72   H     H_    0.357040 0.190061 0.729943 0.000000
H73   H     H_    0.305026 0.196823 0.704730 0.000000
H74   H     H_    0.516569 0.151433 0.749462 0.000000
H75   H     H_    0.587977 0.200955 0.764832 0.000000
H76   H     H_    0.529185 0.327363 0.723558 0.000000
H77   H     H_    0.653248 0.353139 0.740223 0.000000
C78   C     C_3   0.284119 0.078205 0.700931 0.000000
C79   C     C_3   0.283278 0.057014 0.730038 0.000000
C80   C     C_3   0.302654 0.006010 0.732670 0.000000
C81   C     C_R   0.312756 0.088339 0.748674 0.000000
N15   N     N_R   0.363148 0.099506 0.744996 0.000000
C82   C     C_R   0.374322 0.112397 0.773634 0.000000
C83   C     C_R   0.419917 0.123210 0.785035 0.000000
C84   C     C_R   0.424221 0.132533 0.815474 0.000000
C85   C     C_R   0.383149 0.130048 0.834028 0.000000
C86   C     C_R   0.337103 0.119210 0.822041 0.000000
C87   C     C_R   0.333455 0.110881 0.791894 0.000000
N16   N     N_R   0.292765 0.097452 0.776283 0.000000
C88   C     C_2   0.388645 0.137108 0.866431 0.000000
O15   O     O_2   0.429260 0.143881 0.877388 0.000000
O16   O     O_2   0.348812 0.136277 0.884238 0.000000
H78   H     H_    0.322341 0.077894 0.695330 0.000000
H79   H     H_    0.258972 0.058486 0.685635 0.000000
H80   H     H_    0.273415 0.116887 0.703257 0.000000
H81   H     H_    0.247018 0.059290 0.739876 0.000000
H82   H     H_    0.322429 0.004821 0.753968 0.000000
H83   H     H_    0.272219 0.978640 0.733736 0.000000
H84   H     H_    0.328657 0.996989 0.714936 0.000000
H85   H     H_    0.451624 0.121984 0.770887 0.000000
H86   H     H_    0.460282 0.140385 0.824708 0.000000
H87   H     H_    0.305508 0.113964 0.835916 0.000000
H88   H     H_    0.352500 0.141060 0.905550 0.000000
C89   C     C_3   0.148852 0.693106 0.296620 0.000000
C90   C     C_3   0.187388 0.726228 0.282715 0.000000
C91   C     C_3   0.237156 0.713701 0.293177 0.000000
C92   C     C_R   0.183849 0.721827 0.249483 0.000000
N17   N     N_R   0.173338 0.676132 0.234256 0.000000
C93   C     C_R   0.151199 0.691874 0.210183 0.000000
C94   C     C_R   0.128832 0.662183 0.189073 0.000000
C95   C     C_R   0.110749 0.684691 0.165139 0.000000
C96   C     C_R   0.114661 0.735114 0.163129 0.000000
C97   C     C_R   0.128776 0.765563 0.187097 0.000000
C98   C     C_R   0.150489 0.742459 0.209800 0.000000
N18   N     N_R   0.174562 0.763827 0.233127 0.000000
C99   C     C_2   0.117569 0.752244 0.133459 0.000000
O17   O     O_2   0.119943 0.721927 0.112967 0.000000
O18   O     O_2   0.124289 0.800213 0.128382 0.000000
H89   H     H_    0.157231 0.653787 0.292206 0.000000
H90   H     H_    0.147260 0.701103 0.320915 0.000000
H91   H     H_    0.112741 0.700094 0.286877 0.000000
H92   H     H_    0.181495 0.764829 0.290542 0.000000
H93   H     H_    0.254739 0.747967 0.302895 0.000000
H94   H     H_    0.234833 0.684943 0.310015 0.000000
H95   H     H_    0.257294 0.700631 0.273464 0.000000
H96   H     H_    0.130029 0.622498 0.189331 0.000000
H97   H     H_    0.097810 0.662457 0.146611 0.000000
H98   H     H_    0.131310 0.805396 0.185782 0.000000
H99   H     H_    0.121640 0.811529 0.108428 0.000000
C100  C     C_3   0.306401 0.887948 0.248656 0.000000
C101  C     C_3   0.294629 0.902148 0.280408 0.000000
C102  C     C_3   0.275953 0.954805 0.284700 0.000000
C103  C     C_R   0.259218 0.865411 0.292600 0.000000
N19   N     N_R   0.212028 0.864533 0.280240 0.000000
C104  C     C_R   0.184832 0.875571 0.304781 0.000000
C105  C     C_R   0.138389 0.894297 0.305668 0.000000
C106  C     C_R   0.119651 0.910708 0.332876 0.000000
C107  C     C_R   0.148254 0.910986 0.358516 0.000000
C108  C     C_R   0.195909 0.894258 0.356971 0.000000
C109  C     C_R   0.212984 0.875791 0.330077 0.000000
N20   N     N_R   0.259791 0.864627 0.323535 0.000000
C110  C     C_2   0.128869 0.931075 0.386929 0.000000
O19   O     O_2   0.086906 0.945682 0.388497 0.000000
O20   O     O_2   0.157357 0.933572 0.411413 0.000000
H100  H     H_    0.342872 0.871290 0.247028 0.000000
H101  H     H_    0.278928 0.859891 0.241253 0.000000
H102  H     H_    0.305706 0.920036 0.234433 0.000000
H103  H     H_    0.327575 0.903919 0.293908 0.000000
H104  H     H_    0.235553 0.956255 0.285411 0.000000
H105  H     H_    0.289568 0.970241 0.306462 0.000000
H106  H     H_    0.290073 0.979026 0.267230 0.000000
H107  H     H_    0.117993 0.899581 0.285658 0.000000
H108  H     H_    0.083175 0.925578 0.333580 0.000000
H109  H     H_    0.219903 0.897378 0.375951 0.000000
H110  H     H_    0.144530 0.946766 0.430091 0.000000
C111  C     C_3   0.340774 0.570695 0.272326 0.000000
C112  C     C_3   0.297900 0.605207 0.271577 0.000000
C113  C     C_3   0.285530 0.607260 0.240034 0.000000
C114  C     C_R   0.255528 0.588122 0.289982 0.000000
N21   N     N_R   0.209404 0.578310 0.277094 0.000000
C115  C     C_R   0.185144 0.558098 0.299975 0.000000
C116  C     C_R   0.137727 0.540167 0.299817 0.000000
C117  C     C_R   0.119851 0.518859 0.325213 0.000000
C118  C     C_R   0.149454 0.515475 0.350234 0.000000
C119  C     C_R   0.196955 0.535597 0.350443 0.000000
C120  C     C_R   0.213993 0.557419 0.325125 0.000000
N22   N     N_R   0.258949 0.578403 0.320576 0.000000
C121  C     C_2   0.130393 0.489446 0.376083 0.000000
O21   O     O_2   0.087092 0.477222 0.377345 0.000000
O22   O     O_2   0.160803 0.477310 0.398012 0.000000
H111  H     H_    0.327483 0.531630 0.269740 0.000000
H112  H     H_    0.367146 0.578588 0.254268 0.000000
H113  H     H_    0.361210 0.577218 0.292923 0.000000
H114  H     H_    0.307629 0.643360 0.277119 0.000000
H115  H     H_    0.251699 0.627442 0.236392 0.000000
H116  H     H_    0.316449 0.627210 0.229881 0.000000
H117  H     H_    0.285705 0.568916 0.231584 0.000000
H118  H     H_    0.115091 0.541526 0.280346 0.000000
H119  H     H_    0.082830 0.503556 0.324946 0.000000
H120  H     H_    0.220204 0.533580 0.369652 0.000000
H121  H     H_    0.148201 0.459682 0.414814 0.000000
C122  C     C_3   0.627478 0.673403 0.426016 0.000000
C123  C     C_3   0.648362 0.697748 0.454059 0.000000
C124  C     C_3   0.685862 0.737738 0.447188 0.000000
C125  C     C_R   0.607572 0.710897 0.475149 0.000000
N23   N     N_R   0.594255 0.758553 0.486951 0.000000
C126  C     C_R   0.566947 0.744773 0.510107 0.000000
C127  C     C_R   0.548469 0.774756 0.532416 0.000000
C128  C     C_R   0.510818 0.755072 0.548777 0.000000
C129  C     C_R   0.498133 0.705581 0.544714 0.000000
C130  C     C_R   0.526284 0.674650 0.528007 0.000000
C131  C     C_R   0.559222 0.695228 0.509950 0.000000
N24   N     N_R   0.584997 0.671321 0.488975 0.000000
C132  C     C_2   0.450023 0.687582 0.551705 0.000000
O23   O     O_2   0.441114 0.643250 0.551503 0.000000
O24   O     O_2   0.414600 0.720039 0.556983 0.000000
H122  H     H_    0.622543 0.699967 0.408449 0.000000
H123  H     H_    0.653858 0.645668 0.418170 0.000000
H124  H     H_    0.591474 0.655553 0.430546 0.000000
H125  H     H_    0.669043 0.668631 0.464985 0.000000
H126  H     H_    0.719157 0.732654 0.460594 0.000000
H127  H     H_    0.697954 0.733412 0.423732 0.000000
H128  H     H_    0.670791 0.774522 0.452121 0.000000
H129  H     H_    0.559383 0.813000 0.535671 0.000000
H130  H     H_    0.488439 0.779420 0.562265 0.000000
H131  H     H_    0.517449 0.636550 0.525448 0.000000
H132  H     H_    0.380984 0.709914 0.555437 0.000000
C133  C     C_3   0.399671 0.741227 0.337907 0.000000
C134  C     C_3   0.354100 0.718191 0.328229 0.000000
C135  C     C_3   0.365463 0.667712 0.316972 0.000000
C136  C     C_R   0.322226 0.719193 0.354095 0.000000
N25   N     N_R   0.300179 0.675756 0.363833 0.000000
C137  C     C_R   0.256281 0.692082 0.372407 0.000000
C138  C     C_R   0.215971 0.662984 0.377706 0.000000
C139  C     C_R   0.171353 0.685387 0.381912 0.000000
C140  C     C_R   0.167623 0.736239 0.378981 0.000000
C141  C     C_R   0.208903 0.764591 0.371931 0.000000
C142  C     C_R   0.253431 0.742104 0.369530 0.000000
N26   N     N_R   0.296943 0.762248 0.360488 0.000000
C143  C     C_2   0.119557 0.759399 0.381841 0.000000
O25   O     O_2   0.115916 0.803873 0.379018 0.000000
O26   O     O_2   0.079131 0.731614 0.387419 0.000000
H133  H     H_    0.404671 0.731961 0.361221 0.000000
H134  H     H_    0.430307 0.727433 0.324061 0.000000
H135  H     H_    0.395041 0.780889 0.335866 0.000000
H136  H     H_    0.337409 0.739395 0.310639 0.000000
H137  H     H_    0.334943 0.641888 0.320504 0.000000
H138  H     H_    0.376055 0.669382 0.293400 0.000000
H139  H     H_    0.396712 0.654754 0.328457 0.000000
H140  H     H_    0.219259 0.623481 0.377618 0.000000
H141  H     H_    0.139242 0.662544 0.386290 0.000000
H142  H     H_    0.206460 0.803083 0.368030 0.000000
H143  H     H_    0.047525 0.746960 0.389123 0.000000
C144  C     C_3   0.438014 0.949323 0.707385 0.000000
C145  C     C_3   0.439763 0.990225 0.730777 0.000000
C146  C     C_3   0.428876 0.976779 0.762542 0.000000
C147  C     C_R   0.487471 0.015470 0.727942 0.000000
N27   N     N_R   0.534308 0.993464 0.728905 0.000000
C148  C     C_R   0.562568 0.031577 0.719210 0.000000
C149  C     C_R   0.612208 0.031120 0.713376 0.000000
C150  C     C_R   0.634893 0.073179 0.702900 0.000000
C151  C     C_R   0.607610 0.114292 0.696822 0.000000
C152  C     C_R   0.556910 0.112307 0.699713 0.000000
C153  C     C_R   0.534902 0.071563 0.712112 0.000000
N28   N     N_R   0.486464 0.063155 0.717611 0.000000
C154  C     C_2   0.632677 0.160209 0.688035 0.000000
O27   O     O_2   0.676730 0.160839 0.683176 0.000000
O28   O     O_2   0.607500 0.202284 0.686192 0.000000
H144  H     H_    0.468386 0.956344 0.691710 0.000000
H145  H     H_    0.440069 0.912746 0.717009 0.000000
H146  H     H_    0.404585 0.952114 0.694150 0.000000
H147  H     H_    0.412042 0.017219 0.724609 0.000000
H148  H     H_    0.399959 0.001182 0.771649 0.000000
H149  H     H_    0.415787 0.937867 0.763946 0.000000
H150  H     H_    0.461820 0.985071 0.776311 0.000000
H151  H     H_    0.633465 0.998651 0.716781 0.000000
H152  H     H_    0.674202 0.073484 0.699615 0.000000
H153  H     H_    0.535681 0.143016 0.693535 0.000000
H154  H     H_    0.624331 0.232552 0.680840 0.000000
C155  C     C_3   0.503725 0.867731 0.670544 0.000000
C156  C     C_3   0.499850 0.819441 0.686294 0.000000
C157  C     C_3   0.543833 0.788126 0.681513 0.000000
C158  C     C_R   0.491717 0.829625 0.718553 0.000000
N29   N     N_R   0.514502 0.867756 0.735221 0.000000
C159  C     C_R   0.490275 0.866431 0.761066 0.000000
C160  C     C_R   0.498175 0.897375 0.785457 0.000000
C161  C     C_R   0.475157 0.885504 0.811668 0.000000
C162  C     C_R   0.450758 0.840149 0.813492 0.000000
C163  C     C_R   0.437754 0.813410 0.787627 0.000000
C164  C     C_R   0.457831 0.827432 0.761168 0.000000
N30   N     N_R   0.457821 0.802481 0.734356 0.000000
C165  C     C_2   0.439968 0.819892 0.842855 0.000000
O29   O     O_2   0.452054 0.843117 0.865601 0.000000
O30   O     O_2   0.418175 0.774879 0.844750 0.000000
H155  H     H_    0.522675 0.895747 0.684851 0.000000
H156  H     H_    0.524043 0.864816 0.649410 0.000000
H157  H     H_    0.466179 0.880037 0.666055 0.000000
H158  H     H_    0.468582 0.797784 0.676878 0.000000
H159  H     H_    0.557846 0.777901 0.703085 0.000000
H160  H     H_    0.532666 0.753320 0.669471 0.000000
H161  H     H_    0.571923 0.808694 0.669067 0.000000
H162  H     H_    0.522533 0.929371 0.784357 0.000000
H163  H     H_    0.480469 0.909420 0.831278 0.000000
H164  H     H_    0.413942 0.782199 0.788782 0.000000
H165  H     H_    0.412383 0.761179 0.864022 0.000000
C166  C     C_3   0.661476 0.776599 0.694730 0.000000
C167  C     C_3   0.652985 0.826782 0.708620 0.000000
C168  C     C_3   0.686824 0.839170 0.734148 0.000000
C169  C     C_R   0.649112 0.866765 0.687124 0.000000
N31   N     N_R   0.670896 0.870127 0.658347 0.000000
C170  C     C_R   0.650194 0.911749 0.650106 0.000000
C171  C     C_R   0.665154 0.938418 0.627105 0.000000
C172  C     C_R   0.639288 0.979443 0.620176 0.000000
C173  C     C_R   0.597186 0.990362 0.636200 0.000000
C174  C     C_R   0.585171 0.964880 0.661337 0.000000
C175  C     C_R   0.615858 0.928759 0.669587 0.000000
N32   N     N_R   0.615117 0.902827 0.694498 0.000000
C176  C     C_2   0.563944 0.027154 0.626230 0.000000
O31   O     O_2   0.574400 0.052042 0.605034 0.000000
O32   O     O_2   0.519105 0.029172 0.638377 0.000000
H166  H     H_    0.699992 0.765644 0.694706 0.000000
H167  H     H_    0.640767 0.750689 0.708262 0.000000
H168  H     H_    0.646684 0.774791 0.672194 0.000000
H169  H     H_    0.616720 0.825539 0.719498 0.000000
H170  H     H_    0.692139 0.879773 0.737164 0.000000
H171  H     H_    0.670763 0.823941 0.754389 0.000000
H172  H     H_    0.721083 0.820035 0.730848 0.000000
H173  H     H_    0.698630 0.928006 0.617155 0.000000
H174  H     H_    0.650937 0.001186 0.601703 0.000000
H175  H     H_    0.552189 0.972313 0.673567 0.000000
H176  H     H_    0.493687 0.044781 0.627828 0.000000
C177  C     C_3   0.301151 0.801938 0.191759 0.000000
C178  C     C_3   0.270294 0.814326 0.166222 0.000000
C179  C     C_3   0.231892 0.775388 0.160522 0.000000
C180  C     C_R   0.249136 0.863199 0.171999 0.000000
N33   N     N_R   0.224598 0.876309 0.198589 0.000000
C181  C     C_R   0.229349 0.926106 0.198096 0.000000
C182  C     C_R   0.217032 0.959397 0.220414 0.000000
C183  C     C_R   0.220314 0.009422 0.214731 0.000000
C184  C     C_R   0.232589 0.024336 0.186222 0.000000
C185  C     C_R   0.250187 0.990303 0.165134 0.000000
C186  C     C_R   0.249208 0.941375 0.171830 0.000000
N34   N     N_R   0.263293 0.902597 0.154321 0.000000
C187  C     C_2   0.219857 0.073848 0.177022 0.000000
O33   O     O_2   0.195308 0.100622 0.193382 0.000000
O34   O     O_2   0.232980 0.089043 0.149871 0.000000
H177  H     H_    0.276682 0.794556 0.210732 0.000000
H178  H     H_    0.322961 0.769897 0.184498 0.000000
H179  H     H_    0.325933 0.833284 0.197899 0.000000
H180  H     H_    0.293244 0.816183 0.146591 0.000000
H181  H     H_    0.198961 0.796148 0.156508 0.000000
H182  H     H_    0.240176 0.753357 0.140270 0.000000
H183  H     H_    0.229409 0.749949 0.179052 0.000000
H184  H     H_    0.202399 0.946389 0.240971 0.000000
H185  H     H_    0.207491 0.035927 0.231490 0.000000
H186  H     H_    0.259050 0.000674 0.143038 0.000000
H187  H     H_    0.223740 0.121347 0.143619 0.000000
C188  C     C_3   0.465994 0.976441 0.094368 0.000000
C189  C     C_3   0.436244 0.967228 0.121983 0.000000
C190  C     C_3   0.459408 0.982787 0.150840 0.000000
C191  C     C_R   0.395650 0.999738 0.121257 0.000000
N35   N     N_R   0.404015 0.050892 0.120930 0.000000
C192  C     C_R   0.359589 0.064522 0.110589 0.000000
C193  C     C_R   0.345160 0.110389 0.102757 0.000000
C194  C     C_R   0.303220 0.114451 0.085982 0.000000
C195  C     C_R   0.275493 0.072563 0.077551 0.000000
C196  C     C_R   0.286069 0.027408 0.089320 0.000000
C197  C     C_R   0.328220 0.024223 0.105833 0.000000
N36   N     N_R   0.348580 0.982225 0.114472 0.000000
C198  C     C_2   0.238033 0.075512 0.054357 0.000000
O35   O     O_2   0.222126 0.115576 0.048004 0.000000
O36   O     O_2   0.223691 0.034303 0.038507 0.000000
H188  H     H_    0.474466 0.016052 0.092398 0.000000
H189  H     H_    0.499076 0.953750 0.093922 0.000000
H190  H     H_    0.443149 0.965922 0.074741 0.000000
H191  H     H_    0.425054 0.928257 0.120696 0.000000
H192  H     H_    0.430033 0.992603 0.166539 0.000000
H193  H     H_    0.480741 0.953045 0.159778 0.000000
H194  H     H_    0.478102 0.018238 0.147973 0.000000
H195  H     H_    0.366584 0.142591 0.108045 0.000000
H196  H     H_    0.294451 0.150291 0.077794 0.000000
H197  H     H_    0.263912 0.994758 0.083964 0.000000
H198  H     H_    0.200113 0.036321 0.022604 0.000000
C199  C     C_3   0.269329 0.643978 0.143501 0.000000
C200  C     C_3   0.225038 0.618393 0.155188 0.000000
C201  C     C_3   0.189642 0.607028 0.130093 0.000000
C202  C     C_R   0.236048 0.571207 0.168520 0.000000
N37   N     N_R   0.262952 0.534291 0.153382 0.000000
C203  C     C_R   0.258847 0.497389 0.172547 0.000000
C204  C     C_R   0.275828 0.450241 0.168556 0.000000
C205  C     C_R   0.269307 0.417696 0.191145 0.000000
C206  C     C_R   0.248877 0.433713 0.218019 0.000000
C207  C     C_R   0.235369 0.482712 0.222387 0.000000
C208  C     C_R   0.235161 0.512395 0.198230 0.000000
N38   N     N_R   0.218559 0.559425 0.196821 0.000000
C209  C     C_2   0.236570 0.397572 0.240463 0.000000
O37   O     O_2   0.207708 0.408345 0.260298 0.000000
O38   O     O_2   0.252859 0.350934 0.237609 0.000000
H199  H     H_    0.288205 0.617950 0.128446 0.000000
H200  H     H_    0.256040 0.674765 0.130868 0.000000
H201  H     H_    0.292631 0.658841 0.162043 0.000000
H202  H     H_    0.210785 0.643603 0.172381 0.000000
H203  H     H_    0.160932 0.581701 0.138551 0.000000
H204  H     H_    0.174010 0.641492 0.122094 0.000000
H205  H     H_    0.208730 0.587522 0.111506 0.000000
H206  H     H_    0.290437 0.437339 0.147722 0.000000
H207  H     H_    0.279706 0.379564 0.187396 0.000000
H208  H     H_    0.224653 0.496997 0.244078 0.000000
H209  H     H_    0.243227 0.326797 0.251960 0.000000
C210  C     C_3   0.418073 0.469080 0.178631 0.000000
C211  C     C_3   0.424208 0.482625 0.146717 0.000000
C212  C     C_3   0.476019 0.495802 0.137387 0.000000
C213  C     C_R   0.398247 0.444496 0.128044 0.000000
N39   N     N_R   0.408365 0.393273 0.126964 0.000000
C214  C     C_R   0.369089 0.375921 0.111123 0.000000
C215  C     C_R   0.352829 0.327834 0.107024 0.000000
C216  C     C_R   0.318036 0.317341 0.085219 0.000000
C217  C     C_R   0.301543 0.355068 0.067858 0.000000
C218  C     C_R   0.312719 0.404164 0.076069 0.000000
C219  C     C_R   0.342182 0.413532 0.100394 0.000000
N40   N     N_R   0.355868 0.457879 0.113134 0.000000
C220  C     C_2   0.273337 0.342846 0.040667 0.000000
O39   O     O_2   0.258047 0.300573 0.035479 0.000000
O40   O     O_2   0.266117 0.377744 0.020651 0.000000
H210  H     H_    0.436290 0.433999 0.180429 0.000000
H211  H     H_    0.433801 0.497355 0.194555 0.000000
H212  H     H_    0.378598 0.463233 0.183673 0.000000
H213  H     H_    0.405463 0.516325 0.142971 0.000000
H214  H     H_    0.475156 0.529168 0.123797 0.000000
H215  H     H_    0.499517 0.504484 0.157012 0.000000
H216  H     H_    0.491177 0.466228 0.123533 0.000000
H217  H     H_    0.367010 0.298949 0.120049 0.000000
H218  H     H_    0.307279 0.279090 0.080293 0.000000
H219  H     H_    0.302699 0.433916 0.062291 0.000000
H220  H     H_    0.248286 0.369412 0.002505 0.000000
C221  C     C_3   0.797513 0.677410 0.643072 0.000000
C222  C     C_3   0.788576 0.712036 0.618704 0.000000
C223  C     C_3   0.809805 0.694282 0.589240 0.000000
C224  C     C_R   0.734946 0.715690 0.617283 0.000000
N41   N     N_R   0.702546 0.674333 0.617581 0.000000
C225  C     C_R   0.659015 0.698498 0.619338 0.000000
C226  C     C_R   0.611476 0.680656 0.622109 0.000000
C227  C     C_R   0.573555 0.713098 0.619640 0.000000
C228  C     C_R   0.582974 0.762414 0.614221 0.000000
C229  C     C_R   0.629527 0.780689 0.615068 0.000000
C230  C     C_R   0.666068 0.748418 0.618341 0.000000
N42   N     N_R   0.712825 0.761714 0.618648 0.000000
C231  C     C_2   0.544715 0.796869 0.609074 0.000000
O41   O     O_2   0.503253 0.787698 0.617317 0.000000
O42   O     O_2   0.555225 0.838853 0.594897 0.000000
H221  H     H_    0.778251 0.642433 0.638346 0.000000
H222  H     H_    0.836365 0.670490 0.645343 0.000000
H223  H     H_    0.781766 0.693801 0.663768 0.000000
H224  H     H_    0.805574 0.748781 0.624160 0.000000
H225  H     H_    0.825666 0.726606 0.577842 0.000000
H226  H     H_    0.839865 0.668700 0.592621 0.000000
H227  H     H_    0.780473 0.676474 0.575314 0.000000
H228  H     H_    0.602945 0.642760 0.627225 0.000000
H229  H     H_    0.536775 0.699193 0.621611 0.000000
H230  H     H_    0.636925 0.819542 0.612971 0.000000
H231  H     H_    0.529484 0.860316 0.589215 0.000000
C232  C     C_3   0.690250 0.765137 0.515750 0.000000
C233  C     C_3   0.688935 0.783809 0.547581 0.000000
C234  C     C_3   0.742985 0.785867 0.555514 0.000000
C235  C     C_R   0.665660 0.833315 0.552700 0.000000
N43   N     N_R   0.647155 0.858016 0.528259 0.000000
C236  C     C_R   0.672483 0.901133 0.531336 0.000000
C237  C     C_R   0.689657 0.927502 0.507932 0.000000
C238  C     C_R   0.720422 0.968031 0.513464 0.000000
C239  C     C_R   0.737221 0.979047 0.542103 0.000000
C240  C     C_R   0.725639 0.947393 0.564783 0.000000
C241  C     C_R   0.694348 0.906678 0.558914 0.000000
N44   N     N_R   0.688714 0.864123 0.574412 0.000000
C242  C     C_2   0.771572 0.021170 0.547713 0.000000
O43   O     O_2   0.783338 0.047941 0.527527 0.000000
O44   O     O_2   0.790469 0.030398 0.575104 0.000000
H232  H     H_    0.677761 0.792066 0.499977 0.000000
H233  H     H_    0.727983 0.755734 0.508839 0.000000
H234  H     H_    0.670197 0.729663 0.514671 0.000000
H235  H     H_    0.669265 0.756844 0.560806 0.000000
H236  H     H_    0.751505 0.801255 0.577895 0.000000
H237  H     H_    0.756247 0.747675 0.553833 0.000000
H238  H     H_    0.763564 0.807779 0.539066 0.000000
H239  H     H_    0.680455 0.915679 0.485350 0.000000
H240  H     H_    0.732445 0.989818 0.495016 0.000000
H241  H     H_    0.745763 0.952467 0.585245 0.000000
H242  H     H_    0.813370 0.057871 0.578609 0.000000
C243  C     C_3   0.698289 0.644463 0.688722 0.000000
C244  C     C_3   0.646850 0.625479 0.693627 0.000000
C245  C     C_3   0.608843 0.661811 0.685967 0.000000
C246  C     C_R   0.637021 0.577334 0.677958 0.000000
N45   N     N_R   0.657007 0.563522 0.650038 0.000000
C247  C     C_R   0.642295 0.515793 0.647580 0.000000
C248  C     C_R   0.652782 0.483460 0.624464 0.000000
C249  C     C_R   0.640285 0.434270 0.627238 0.000000
C250  C     C_R   0.617978 0.418235 0.653081 0.000000
C251  C     C_R   0.605535 0.451892 0.676006 0.000000
C252  C     C_R   0.617510 0.501188 0.672579 0.000000
N46   N     N_R   0.611154 0.539925 0.692327 0.000000
C253  C     C_2   0.610004 0.365073 0.656256 0.000000
O45   O     O_2   0.629989 0.335638 0.639178 0.000000
O46   O     O_2   0.581657 0.348270 0.678283 0.000000
H243  H     H_    0.708170 0.639492 0.665319 0.000000
H244  H     H_    0.702097 0.683592 0.696229 0.000000
H245  H     H_    0.723594 0.623029 0.701919 0.000000
H246  H     H_    0.644178 0.620077 0.717149 0.000000
H247  H     H_    0.577026 0.642903 0.674715 0.000000
H248  H     H_    0.595746 0.681735 0.705547 0.000000
H249  H     H_    0.626791 0.690915 0.673783 0.000000
H250  H     H_    0.672505 0.495386 0.605257 0.000000
H251  H     H_    0.649751 0.408262 0.609342 0.000000
H252  H     H_    0.589643 0.439570 0.696520 0.000000
H253  H     H_    0.577886 0.312960 0.680305 0.000000
C254  C     C_3   0.747585 0.521215 0.683843 0.000000
C255  C     C_3   0.789086 0.499256 0.666453 0.000000
C256  C     C_3   0.771523 0.454217 0.647734 0.000000
C257  C     C_R   0.811357 0.535562 0.646059 0.000000
N47   N     N_R   0.782827 0.559201 0.624621 0.000000
C258  C     C_R   0.816020 0.562580 0.602562 0.000000
C259  C     C_R   0.807369 0.578298 0.574542 0.000000
C260  C     C_R   0.843974 0.573900 0.553469 0.000000
C261  C     C_R   0.888499 0.553328 0.560532 0.000000
C262  C     C_R   0.896700 0.538020 0.589360 0.000000
C263  C     C_R   0.860706 0.544472 0.610354 0.000000
N48   N     N_R   0.861401 0.530628 0.639025 0.000000
C264  C     C_2   0.926328 0.548705 0.537215 0.000000
O47   O     O_2   0.916332 0.557112 0.511488 0.000000
O48   O     O_2   0.972433 0.536683 0.544028 0.000000
H254  H     H_    0.737532 0.555421 0.673426 0.000000
H255  H     H_    0.716627 0.494236 0.684414 0.000000
H256  H     H_    0.759550 0.530274 0.706772 0.000000
H257  H     H_    0.817008 0.487708 0.682386 0.000000
H258  H     H_    0.803302 0.436662 0.636492 0.000000
H259  H     H_    0.752505 0.426767 0.661701 0.000000
H260  H     H_    0.746663 0.465849 0.630152 0.000000
H261  H     H_    0.772711 0.593498 0.568885 0.000000
H262  H     H_    0.837047 0.586313 0.531327 0.000000
H263  H     H_    0.929526 0.520403 0.595575 0.000000
H264  H     H_    0.997111 0.534267 0.528587 0.000000
C265  C     C_3   0.425542 0.560874 0.753049 0.000000
C266  C     C_3   0.429592 0.590274 0.725296 0.000000
C267  C     C_3   0.382678 0.618818 0.723363 0.000000
C268  C     C_R   0.475372 0.622552 0.727655 0.000000
N49   N     N_R   0.475254 0.674313 0.729048 0.000000
C269  C     C_R   0.519581 0.684639 0.741365 0.000000
C270  C     C_R   0.540077 0.729239 0.749890 0.000000
C271  C     C_R   0.588151 0.732519 0.757648 0.000000
C272  C     C_R   0.612647 0.690972 0.763415 0.000000
C273  C     C_R   0.589701 0.645794 0.759030 0.000000
C274  C     C_R   0.544642 0.643209 0.745822 0.000000
N50   N     N_R   0.520468 0.602889 0.734893 0.000000
C275  C     C_2   0.665157 0.694816 0.766076 0.000000
O49   O     O_2   0.687635 0.662280 0.777428 0.000000
O50   O     O_2   0.688735 0.731027 0.751748 0.000000
H265  H     H_    0.437811 0.584198 0.772594 0.000000
H266  H     H_    0.387371 0.547795 0.756769 0.000000
H267  H     H_    0.448669 0.528490 0.750150 0.000000
H268  H     H_    0.431810 0.564374 0.705716 0.000000
H269  H     H_    0.388340 0.654433 0.712623 0.000000
H270  H     H_    0.355424 0.597086 0.710348 0.000000
H271  H     H_    0.365878 0.623031 0.745531 0.000000
H272  H     H_    0.522349 0.762028 0.749040 0.000000
H273  H     H_    0.606600 0.768138 0.759156 0.000000
H274  H     H_    0.611060 0.614644 0.759795 0.000000
H275  H     H_    0.722178 0.728634 0.745139 0.000000
C276  C     C_3   0.732429 0.568592 0.763281 0.000000
C277  C     C_3   0.684547 0.540874 0.757472 0.000000
C278  C     C_3   0.689280 0.486794 0.747429 0.000000
C279  C     C_R   0.647262 0.544343 0.781910 0.000000
N51   N     N_R   0.654741 0.551973 0.812893 0.000000
C280  C     C_R   0.609594 0.539161 0.823073 0.000000
C281  C     C_R   0.596177 0.527538 0.851442 0.000000
C282  C     C_R   0.547496 0.515954 0.857045 0.000000
C283  C     C_R   0.512405 0.519618 0.834915 0.000000
C284  C     C_R   0.527279 0.528187 0.805968 0.000000
C285  C     C_R   0.576507 0.533219 0.800422 0.000000
N52   N     N_R   0.598828 0.534739 0.773751 0.000000
C286  C     C_2   0.460183 0.512951 0.842247 0.000000
O51   O     O_2   0.447946 0.498361 0.866577 0.000000
O52   O     O_2   0.425458 0.523746 0.822456 0.000000
H276  H     H_    0.764523 0.545129 0.759108 0.000000
H277  H     H_    0.735478 0.599294 0.747892 0.000000
H278  H     H_    0.732185 0.584537 0.786065 0.000000
H279  H     H_    0.668735 0.557879 0.738263 0.000000
H280  H     H_    0.671781 0.463309 0.764184 0.000000
H281  H     H_    0.668208 0.479957 0.726654 0.000000
H282  H     H_    0.727710 0.476018 0.743337 0.000000
H283  H     H_    0.622516 0.525633 0.868870 0.000000
H284  H     H_    0.536905 0.506860 0.879420 0.000000
H285  H     H_    0.501892 0.529215 0.787927 0.000000
H286  H     H_    0.391238 0.518729 0.827388 0.000000
C287  C     C_3   0.253009 0.502047 0.547026 0.000000
C288  C     C_3   0.291868 0.468928 0.558245 0.000000
C289  C     C_3   0.291976 0.451459 0.589465 0.000000
C290  C     C_R   0.304512 0.431312 0.536227 0.000000
N53   N     N_R   0.297248 0.380244 0.539990 0.000000
C291  C     C_R   0.315679 0.362479 0.513850 0.000000
C292  C     C_R   0.320150 0.313631 0.504957 0.000000
C293  C     C_R   0.344531 0.301036 0.479112 0.000000
C294  C     C_R   0.370460 0.337072 0.464520 0.000000
C295  C     C_R   0.366364 0.386401 0.473840 0.000000
C296  C     C_R   0.335321 0.399742 0.496988 0.000000
N54   N     N_R   0.329051 0.445613 0.510415 0.000000
C297  C     C_2   0.408728 0.321564 0.443282 0.000000
O53   O     O_2   0.404662 0.281818 0.429530 0.000000
O54   O     O_2   0.450333 0.349054 0.440764 0.000000
H287  H     H_    0.219188 0.483044 0.538755 0.000000
H288  H     H_    0.246660 0.532659 0.563125 0.000000
H289  H     H_    0.269531 0.518739 0.527557 0.000000
H290  H     H_    0.322856 0.492089 0.557911 0.000000
H291  H     H_    0.330626 0.442859 0.593861 0.000000
H292  H     H_    0.280362 0.481105 0.605437 0.000000
H293  H     H_    0.271240 0.416554 0.591713 0.000000
H294  H     H_    0.307656 0.284765 0.518170 0.000000
H295  H     H_    0.349097 0.262240 0.473121 0.000000
H296  H     H_    0.393545 0.411543 0.466708 0.000000
H297  H     H_    0.476040 0.338104 0.427370 0.000000
C298  C     C_3   0.631526 0.666265 0.555325 0.000000
C299  C     C_3   0.618152 0.617984 0.568441 0.000000
C300  C     C_3   0.565401 0.600528 0.571727 0.000000
C301  C     C_R   0.646155 0.583383 0.553064 0.000000
N55   N     N_R   0.639858 0.567236 0.523402 0.000000
C302  C     C_R   0.674574 0.531784 0.522123 0.000000
C303  C     C_R   0.682293 0.496886 0.499598 0.000000
C304  C     C_R   0.717954 0.462018 0.503499 0.000000
C305  C     C_R   0.743960 0.460803 0.530143 0.000000
C306  C     C_R   0.733776 0.494204 0.553452 0.000000
C307  C     C_R   0.699717 0.529791 0.548935 0.000000
N56   N     N_R   0.683464 0.564013 0.569212 0.000000
C308  C     C_2   0.781427 0.423394 0.533964 0.000000
O55   O     O_2   0.789833 0.392930 0.513935 0.000000
O56   O     O_2   0.807135 0.422898 0.559514 0.000000
H298  H     H_    0.635825 0.659944 0.531323 0.000000
H299  H     H_    0.606126 0.695923 0.562036 0.000000
H300  H     H_    0.669389 0.675878 0.562483 0.000000
H301  H     H_    0.636496 0.614175 0.589582 0.000000
H302  H     H_    0.564158 0.573149 0.589427 0.000000
H303  H     H_    0.541880 0.631510 0.578920 0.000000
H304  H     H_    0.552483 0.581080 0.551113 0.000000
H305  H     H_    0.659802 0.494962 0.479887 0.000000
H306  H     H_    0.724448 0.434881 0.485665 0.000000
H307  H     H_    0.751207 0.491869 0.574857 0.000000
H308  H     H_    0.832022 0.398488 0.561933 0.000000
C309  C     C_3   0.485516 0.646532 0.462889 0.000000
C310  C     C_3   0.449116 0.618920 0.481674 0.000000
C311  C     C_3   0.405960 0.607827 0.463027 0.000000
C312  C     C_R   0.466074 0.570728 0.493232 0.000000
N57   N     N_R   0.515210 0.560382 0.497921 0.000000
C313  C     C_R   0.512342 0.513257 0.506392 0.000000
C314  C     C_R   0.550643 0.483946 0.513091 0.000000
C315  C     C_R   0.542252 0.434085 0.515934 0.000000
C316  C     C_R   0.494962 0.414762 0.513968 0.000000
C317  C     C_R   0.455798 0.446358 0.511427 0.000000
C318  C     C_R   0.465373 0.495170 0.505456 0.000000
N58   N     N_R   0.433923 0.530398 0.497270 0.000000
C319  C     C_2   0.487170 0.360924 0.514127 0.000000
O57   O     O_2   0.522198 0.333700 0.514695 0.000000
O58   O     O_2   0.441564 0.341053 0.512933 0.000000
H309  H     H_    0.519242 0.625720 0.458622 0.000000
H310  H     H_    0.468321 0.653691 0.441819 0.000000
H311  H     H_    0.491634 0.684326 0.472426 0.000000
H312  H     H_    0.436270 0.644024 0.499529 0.000000
H313  H     H_    0.415990 0.579219 0.445979 0.000000
H314  H     H_    0.378617 0.594351 0.478511 0.000000
H315  H     H_    0.392026 0.641860 0.453418 0.000000
H316  H     H_    0.587098 0.497730 0.512751 0.000000
H317  H     H_    0.573235 0.410489 0.518793 0.000000
H318  H     H_    0.419270 0.432949 0.513971 0.000000
H319  H     H_    0.436833 0.305434 0.512294 0.000000
C320  C     C_3   0.237476 0.530630 0.470090 0.000000
C321  C     C_3   0.240882 0.555609 0.440707 0.000000
C322  C     C_3   0.209487 0.600971 0.439705 0.000000
C323  C     C_R   0.293240 0.563922 0.431478 0.000000
N59   N     N_R   0.328146 0.539329 0.448643 0.000000
C324  C     C_R   0.348606 0.511193 0.426900 0.000000
C325  C     C_R   0.381213 0.475352 0.430346 0.000000
C326  C     C_R   0.380652 0.436381 0.409444 0.000000
C327  C     C_R   0.344082 0.432967 0.388245 0.000000
C328  C     C_R   0.316576 0.474259 0.383443 0.000000
C329  C     C_R   0.327557 0.517016 0.399985 0.000000
N60   N     N_R   0.299579 0.557052 0.400586 0.000000
C330  C     C_2   0.333930 0.385455 0.372234 0.000000
O59   O     O_2   0.363691 0.352491 0.372671 0.000000
O60   O     O_2   0.290358 0.376697 0.358811 0.000000
H320  H     H_    0.260888 0.551837 0.485988 0.000000
H321  H     H_    0.199045 0.528996 0.478233 0.000000
H322  H     H_    0.250572 0.492071 0.467481 0.000000
H323  H     H_    0.224966 0.528735 0.424080 0.000000
H324  H     H_    0.187048 0.597326 0.419287 0.000000
H325  H     H_    0.182468 0.601833 0.458097 0.000000
H326  H     H_    0.232526 0.635287 0.439781 0.000000
H327  H     H_    0.406734 0.478811 0.448560 0.000000
H328  H     H_    0.405489 0.406548 0.411543 0.000000
H329  H     H_    0.286171 0.472629 0.368103 0.000000
H330  H     H_    0.283420 0.344928 0.348851 0.000000
C331  C     C_3   0.302411 0.998258 0.647889 0.000000
C332  C     C_3   0.352802 0.019519 0.652753 0.000000
C333  C     C_3   0.387239 0.990014 0.633189 0.000000
C334  C     C_R   0.357212 0.073677 0.647338 0.000000
N61   N     N_R   0.350842 0.087106 0.617988 0.000000
C335  C     C_R   0.396882 0.102386 0.612150 0.000000
C336  C     C_R   0.419127 0.101307 0.584823 0.000000
C337  C     C_R   0.467018 0.118601 0.583167 0.000000
C338  C     C_R   0.491152 0.137271 0.608643 0.000000
C339  C     C_R   0.469196 0.133561 0.636578 0.000000
C340  C     C_R   0.422830 0.112553 0.637849 0.000000
N62   N     N_R   0.397274 0.097262 0.661898 0.000000
C341  C     C_2   0.541480 0.156692 0.605838 0.000000
O61   O     O_2   0.557491 0.167700 0.581543 0.000000
O62   O     O_2   0.571220 0.159761 0.629653 0.000000
H331  H     H_    0.277391 0.026857 0.640857 0.000000
H332  H     H_    0.303553 0.965927 0.632083 0.000000
H333  H     H_    0.289751 0.984843 0.668937 0.000000
H334  H     H_    0.364752 0.014458 0.675591 0.000000
H335  H     H_    0.377736 0.993885 0.609432 0.000000
H336  H     H_    0.425058 0.003294 0.637743 0.000000
H337  H     H_    0.384687 0.950347 0.638745 0.000000
H338  H     H_    0.400245 0.086095 0.565413 0.000000
H339  H     H_    0.484855 0.118643 0.561669 0.000000
H340  H     H_    0.487891 0.145546 0.656566 0.000000
H341  H     H_    0.605017 0.170437 0.627164 0.000000
C342  C     C_3   0.392959 0.212438 0.587199 0.000000
C343  C     C_3   0.361680 0.221238 0.561216 0.000000
C344  C     C_3   0.376084 0.188819 0.534716 0.000000
C345  C     C_R   0.309769 0.213128 0.569584 0.000000
N63   N     N_R   0.288579 0.166022 0.564356 0.000000
C346  C     C_R   0.251209 0.177673 0.546386 0.000000
C347  C     C_R   0.226629 0.146536 0.526758 0.000000
C348  C     C_R   0.196880 0.166161 0.505543 0.000000
C349  C     C_R   0.193602 0.217214 0.503424 0.000000
C350  C     C_R   0.219192 0.248638 0.523332 0.000000
C351  C     C_R   0.246964 0.227868 0.544897 0.000000
N64   N     N_R   0.279759 0.251878 0.562816 0.000000
C352  C     C_2   0.165120 0.237785 0.479329 0.000000
O63   O     O_2   0.142409 0.210255 0.461840 0.000000
O64   O     O_2   0.163933 0.287192 0.476404 0.000000
H342  H     H_    0.374340 0.183120 0.598894 0.000000
H343  H     H_    0.431333 0.206408 0.580321 0.000000
H344  H     H_    0.391634 0.243437 0.602897 0.000000
H345  H     H_    0.366100 0.259117 0.553800 0.000000
H346  H     H_    0.349840 0.193193 0.516229 0.000000
H347  H     H_    0.413413 0.199849 0.527161 0.000000
H348  H     H_    0.376168 0.150221 0.541233 0.000000
H349  H     H_    0.235292 0.108579 0.525456 0.000000
H350  H     H_    0.178786 0.141150 0.489461 0.000000
H351  H     H_    0.219265 0.288392 0.521493 0.000000
H352  H     H_    0.145086 0.300635 0.460566 0.000000
C353  C     C_3   0.179043 0.141865 0.671084 0.000000
C354  C     C_3   0.201602 0.135792 0.641547 0.000000
C355  C     C_3   0.256039 0.143294 0.642908 0.000000
C356  C     C_R   0.189995 0.087968 0.627434 0.000000
N65   N     N_R   0.216029 0.076940 0.601174 0.000000
C357  C     C_R   0.179202 0.058537 0.583724 0.000000
C358  C     C_R   0.182265 0.044727 0.554150 0.000000
C359  C     C_R   0.140641 0.027625 0.539528 0.000000
C360  C     C_R   0.096573 0.023806 0.554667 0.000000
C361  C     C_R   0.093141 0.039891 0.584383 0.000000
C362  C     C_R   0.135321 0.055853 0.598977 0.000000
N66   N     N_R   0.140683 0.071464 0.627934 0.000000
C363  C     C_2   0.056135 0.996400 0.539841 0.000000
O65   O     O_2   0.049044 0.000812 0.513297 0.000000
O66   O     O_2   0.032185 0.960388 0.554240 0.000000
H353  H     H_    0.197035 0.118253 0.686685 0.000000
H354  H     H_    0.180917 0.181442 0.677801 0.000000
H355  H     H_    0.140605 0.131735 0.668708 0.000000
H356  H     H_    0.183234 0.161783 0.627581 0.000000
H357  H     H_    0.270256 0.152546 0.620829 0.000000
H358  H     H_    0.266163 0.171877 0.660191 0.000000
H359  H     H_    0.271568 0.108284 0.648343 0.000000
H360  H     H_    0.217075 0.042057 0.543158 0.000000
H361  H     H_    0.143612 0.013516 0.516748 0.000000
H362  H     H_    0.058584 0.039107 0.595732 0.000000
H363  H     H_    0.009485 0.938319 0.543483 0.000000
C364  C     C_3   0.003085 0.457051 0.589757 0.000000
C365  C     C_3   0.993593 0.407205 0.602999 0.000000
C366  C     C_3   0.021850 0.366765 0.586358 0.000000
C367  C     C_R   0.994950 0.408329 0.636708 0.000000
N67   N     N_R   0.004869 0.362354 0.649183 0.000000
C368  C     C_R   0.960120 0.351295 0.660349 0.000000
C369  C     C_R   0.945642 0.308249 0.673039 0.000000
C370  C     C_R   0.899031 0.305240 0.685206 0.000000
C371  C     C_R   0.868001 0.345497 0.684924 0.000000
C372  C     C_R   0.883172 0.388811 0.671548 0.000000
C373  C     C_R   0.929064 0.390677 0.658915 0.000000
N68   N     N_R   0.953285 0.431213 0.648974 0.000000
C374  C     C_2   0.820664 0.343165 0.700572 0.000000
O67   O     O_2   0.796370 0.380293 0.704042 0.000000
O68   O     O_2   0.804385 0.300316 0.711868 0.000000
H364  H     H_    0.973574 0.461470 0.573356 0.000000
H365  H     H_    0.002498 0.486848 0.607387 0.000000
H366  H     H_    0.037973 0.459016 0.577228 0.000000
H367  H     H_    0.954652 0.398113 0.597553 0.000000
H368  H     H_    0.027772 0.334086 0.599691 0.000000
H369  H     H_    0.000127 0.354292 0.566491 0.000000
H370  H     H_    0.057501 0.380985 0.578174 0.000000
H371  H     H_    0.970393 0.278159 0.673904 0.000000
H372  H     H_    0.887995 0.272020 0.696300 0.000000
H373  H     H_    0.861418 0.421360 0.672493 0.000000
H374  H     H_    0.773409 0.299041 0.722363 0.000000
C375  C     C_3   0.099432 0.231936 0.588142 0.000000
C376  C     C_3   0.138708 0.263954 0.575837 0.000000
C377  C     C_3   0.117919 0.288607 0.548887 0.000000
C378  C     C_R   0.157321 0.302589 0.598238 0.000000
N69   N     N_R   0.123894 0.324275 0.618381 0.000000
C379  C     C_R   0.136209 0.371589 0.616059 0.000000
C380  C     C_R   0.109372 0.408976 0.626731 0.000000
C381  C     C_R   0.113632 0.452529 0.612609 0.000000
C382  C     C_R   0.148186 0.458977 0.591103 0.000000
C383  C     C_R   0.179225 0.421185 0.582905 0.000000
C384  C     C_R   0.174041 0.378142 0.596909 0.000000
N70   N     N_R   0.194739 0.335081 0.589028 0.000000
C385  C     C_2   0.164325 0.509263 0.589856 0.000000
O69   O     O_2   0.135908 0.540444 0.582059 0.000000
O70   O     O_2   0.200487 0.521608 0.609031 0.000000
H375  H     H_    0.068866 0.256680 0.592956 0.000000
H376  H     H_    0.087913 0.203004 0.571197 0.000000
H377  H     H_    0.113337 0.213836 0.607991 0.000000
H378  H     H_    0.167100 0.238580 0.569050 0.000000
H379  H     H_    0.144618 0.315631 0.539809 0.000000
H380  H     H_    0.108069 0.259891 0.531495 0.000000
H381  H     H_    0.084300 0.308488 0.554985 0.000000
H382  H     H_    0.084465 0.402914 0.644509 0.000000
H383  H     H_    0.091430 0.483499 0.618699 0.000000
H384  H     H_    0.204022 0.422562 0.564644 0.000000
H385  H     H_    0.198043 0.550063 0.622198 0.000000
C386  C     C_3   0.086755 0.324707 0.781155 0.000000
C387  C     C_3   0.077272 0.306997 0.749142 0.000000
C388  C     C_3   0.027373 0.322209 0.739936 0.000000
C389  C     C_R   0.117270 0.319945 0.727000 0.000000
N71   N     N_R   0.166134 0.321314 0.736434 0.000000
C390  C     C_R   0.189432 0.312026 0.710561 0.000000
C391  C     C_R   0.237178 0.300028 0.706939 0.000000
C392  C     C_R   0.252341 0.281491 0.680475 0.000000
C393  C     C_R   0.219996 0.270293 0.658225 0.000000
C394  C     C_R   0.170940 0.277429 0.662920 0.000000
C395  C     C_R   0.157604 0.305444 0.687514 0.000000
N72   N     N_R   0.111385 0.315160 0.695525 0.000000
C396  C     C_2   0.241253 0.252178 0.630690 0.000000
O71   O     O_2   0.217406 0.230802 0.611373 0.000000
O72   O     O_2   0.289709 0.253888 0.628518 0.000000
H386  H     H_    0.078214 0.364112 0.785014 0.000000
H387  H     H_    0.062055 0.303171 0.795745 0.000000
H388  H     H_    0.124689 0.317552 0.787850 0.000000
H389  H     H_    0.075154 0.267098 0.751066 0.000000
H390  H     H_    0.022467 0.321335 0.715554 0.000000
H391  H     H_    0.999372 0.297694 0.750135 0.000000
H392  H     H_    0.023766 0.360250 0.748476 0.000000
H393  H     H_    0.262623 0.298911 0.724224 0.000000
H394  H     H_    0.289867 0.273512 0.678112 0.000000
H395  H     H_    0.143911 0.258888 0.648964 0.000000
H396  H     H_    0.306263 0.225234 0.621332 0.000000
C397  C     C_3   0.873414 0.809966 0.142094 0.000000
C398  C     C_3   0.897651 0.790360 0.168821 0.000000
C399  C     C_3   0.952958 0.793949 0.169380 0.000000
C400  C     C_R   0.875778 0.813029 0.194902 0.000000
N73   N     N_R   0.898723 0.852044 0.210515 0.000000
C401  C     C_R   0.885919 0.842247 0.238865 0.000000
C402  C     C_R   0.906008 0.863022 0.264804 0.000000
C403  C     C_R   0.890799 0.844844 0.291674 0.000000
C404  C     C_R   0.858126 0.804660 0.292213 0.000000
C405  C     C_R   0.840341 0.783076 0.265758 0.000000
C406  C     C_R   0.854498 0.802146 0.239325 0.000000
N74   N     N_R   0.845864 0.783079 0.211421 0.000000
C407  C     C_2   0.846427 0.781583 0.320449 0.000000
O73   O     O_2   0.859038 0.801814 0.344045 0.000000
O74   O     O_2   0.824333 0.736440 0.320286 0.000000
H397  H     H_    0.864867 0.848316 0.147051 0.000000
H398  H     H_    0.895367 0.803076 0.121708 0.000000
H399  H     H_    0.836339 0.794477 0.139885 0.000000
H400  H     H_    0.889408 0.751356 0.171380 0.000000
H401  H     H_    0.967005 0.762269 0.181536 0.000000
H402  H     H_    0.967010 0.791810 0.146429 0.000000
H403  H     H_    0.966910 0.827913 0.180598 0.000000
H404  H     H_    0.934015 0.892037 0.264236 0.000000
H405  H     H_    0.906648 0.860643 0.312043 0.000000
H406  H     H_    0.817023 0.751292 0.265830 0.000000
H407  H     H_    0.819810 0.719521 0.338661 0.000000
C408  C     C_3   0.783621 0.611632 0.150095 0.000000
C409  C     C_3   0.831961 0.593847 0.161531 0.000000
C410  C     C_3   0.857063 0.564159 0.138782 0.000000
C411  C     C_R   0.867067 0.621975 0.181033 0.000000
N75   N     N_R   0.847455 0.658270 0.199781 0.000000
C412  C     C_R   0.862265 0.643750 0.226706 0.000000
C413  C     C_R   0.840174 0.654269 0.253573 0.000000
C414  C     C_R   0.853866 0.628971 0.278243 0.000000
C415  C     C_R   0.888803 0.592616 0.275727 0.000000
C416  C     C_R   0.906597 0.578440 0.247870 0.000000
C417  C     C_R   0.893546 0.605191 0.223840 0.000000
N76   N     N_R   0.901098 0.592498 0.194993 0.000000
C418  C     C_2   0.905980 0.568789 0.302383 0.000000
O75   O     O_2   0.942217 0.543185 0.301054 0.000000
O76   O     O_2   0.882875 0.576331 0.328656 0.000000
H408  H     H_    0.771008 0.644144 0.162812 0.000000
H409  H     H_    0.784682 0.616746 0.125961 0.000000
H410  H     H_    0.755807 0.581957 0.153639 0.000000
H411  H     H_    0.818778 0.569353 0.177950 0.000000
H412  H     H_    0.879177 0.538940 0.151229 0.000000
H413  H     H_    0.828504 0.542911 0.126445 0.000000
H414  H     H_    0.878873 0.588119 0.124399 0.000000
H415  H     H_    0.809404 0.677795 0.255100 0.000000
H416  H     H_    0.836844 0.637955 0.299462 0.000000
H417  H     H_    0.930362 0.547476 0.244864 0.000000
H418  H     H_    0.894541 0.560786 0.346213 0.000000
C419  C     C_3   0.729015 0.802645 0.270194 0.000000
C420  C     C_3   0.711832 0.792526 0.238362 0.000000
C421  C     C_3   0.744745 0.816826 0.215635 0.000000
C422  C     C_R   0.703875 0.738563 0.233818 0.000000
N77   N     N_R   0.737862 0.708429 0.220000 0.000000
C423  C     C_R   0.721931 0.663108 0.227536 0.000000
C424  C     C_R   0.745356 0.619342 0.222290 0.000000
C425  C     C_R   0.745338 0.585005 0.243677 0.000000
C426  C     C_R   0.726479 0.599060 0.270826 0.000000
C427  C     C_R   0.696582 0.639701 0.273074 0.000000
C428  C     C_R   0.685876 0.666688 0.248253 0.000000
N78   N     N_R   0.667284 0.713272 0.248974 0.000000
C429  C     C_2   0.740950 0.573243 0.297362 0.000000
O77   O     O_2   0.766517 0.537000 0.294781 0.000000
O78   O     O_2   0.729434 0.591380 0.324717 0.000000
H419  H     H_    0.744449 0.768677 0.278808 0.000000
H420  H     H_    0.754610 0.835025 0.272648 0.000000
H421  H     H_    0.697725 0.809503 0.284743 0.000000
H422  H     H_    0.676493 0.807575 0.234775 0.000000
H423  H     H_    0.763797 0.789869 0.201703 0.000000
H424  H     H_    0.722034 0.834238 0.199313 0.000000
H425  H     H_    0.769485 0.845857 0.225644 0.000000
H426  H     H_    0.770211 0.614344 0.205042 0.000000
H427  H     H_    0.768173 0.552961 0.240761 0.000000
H428  H     H_    0.687773 0.650610 0.294755 0.000000
H429  H     H_    0.742067 0.576058 0.342044 0.000000
C430  C     C_3   0.664977 0.791197 0.142630 0.000000
C431  C     C_3   0.686290 0.747120 0.156670 0.000000
C432  C     C_3   0.659070 0.698734 0.158269 0.000000
C433  C     C_R   0.725793 0.734785 0.138189 0.000000
N79   N     N_R   0.720923 0.721924 0.107824 0.000000
C434  C     C_R   0.767177 0.708601 0.102026 0.000000
C435  C     C_R   0.785873 0.682742 0.078075 0.000000
C436  C     C_R   0.835694 0.676715 0.076907 0.000000
C437  C     C_R   0.861635 0.686513 0.102607 0.000000
C438  C     C_R   0.839794 0.699230 0.127881 0.000000
C439  C     C_R   0.795107 0.714233 0.126827 0.000000
N80   N     N_R   0.770698 0.728130 0.150791 0.000000
C440  C     C_2   0.911251 0.681459 0.107103 0.000000
O79   O     O_2   0.932265 0.646798 0.096003 0.000000
O80   O     O_2   0.932250 0.713451 0.127022 0.000000
H430  H     H_    0.685226 0.800343 0.122135 0.000000
H431  H     H_    0.626611 0.784844 0.137431 0.000000
H432  H     H_    0.671305 0.823799 0.157785 0.000000
H433  H     H_    0.699654 0.757757 0.178553 0.000000
H434  H     H_    0.686145 0.668781 0.157058 0.000000
H435  H     H_    0.639324 0.693642 0.179368 0.000000
H436  H     H_    0.635732 0.695220 0.138804 0.000000
H437  H     H_    0.763569 0.663199 0.062431 0.000000
H438  H     H_    0.852384 0.658855 0.057697 0.000000
H439  H     H_    0.856603 0.695328 0.148683 0.000000
H440  H     H_    0.963895 0.710832 0.135773 0.000000
C441  C     C_3   0.561678 0.606773 0.091355 0.000000
C442  C     C_3   0.550686 0.640914 0.117200 0.000000
C443  C     C_3   0.572256 0.623098 0.145882 0.000000
C444  C     C_R   0.554886 0.695159 0.109888 0.000000
N81   N     N_R   0.591832 0.722017 0.094628 0.000000
C445  C     C_R   0.568367 0.764878 0.091061 0.000000
C446  C     C_R   0.586966 0.811161 0.088136 0.000000
C447  C     C_R   0.553293 0.848521 0.083886 0.000000
C448  C     C_R   0.504781 0.837067 0.079923 0.000000
C449  C     C_R   0.487940 0.793740 0.090709 0.000000
C450  C     C_R   0.521628 0.761827 0.099614 0.000000
N82   N     N_R   0.512992 0.721648 0.114475 0.000000
C451  C     C_2   0.473681 0.869198 0.063170 0.000000
O81   O     O_2   0.491901 0.896351 0.044875 0.000000
O82   O     O_2   0.424931 0.868007 0.067035 0.000000
H441  H     H_    0.584630 0.576420 0.098762 0.000000
H442  H     H_    0.527008 0.589607 0.082928 0.000000
H443  H     H_    0.579396 0.628404 0.073867 0.000000
H444  H     H_    0.511211 0.635001 0.121281 0.000000
H445  H     H_    0.565743 0.650066 0.164434 0.000000
H446  H     H_    0.552837 0.588059 0.151396 0.000000
H447  H     H_    0.611448 0.614668 0.143676 0.000000
H448  H     H_    0.625979 0.817717 0.089171 0.000000
H449  H     H_    0.564078 0.885815 0.079805 0.000000
H450  H     H_    0.451537 0.781003 0.088212 0.000000
H451  H     H_    0.404529 0.885890 0.053944 0.000000
C452  C     C_3   0.354948 0.573733 0.183098 0.000000
C453  C     C_3   0.386816 0.614746 0.171923 0.000000
C454  C     C_3   0.439169 0.607089 0.181994 0.000000
C455  C     C_R   0.385309 0.620320 0.139071 0.000000
N83   N     N_R   0.367887 0.583382 0.119203 0.000000
C456  C     C_R   0.396422 0.590548 0.095456 0.000000
C457  C     C_R   0.404452 0.557273 0.072349 0.000000
C458  C     C_R   0.433954 0.572559 0.049250 0.000000
C459  C     C_R   0.452286 0.621121 0.049278 0.000000
C460  C     C_R   0.448135 0.651681 0.074649 0.000000
C461  C     C_R   0.421797 0.634338 0.098395 0.000000
N84   N     N_R   0.415570 0.655173 0.126092 0.000000
C462  C     C_2   0.471210 0.641686 0.021655 0.000000
O83   O     O_2   0.473088 0.615642 0.998893 0.000000
O84   O     O_2   0.481977 0.690522 0.020604 0.000000
H452  H     H_    0.319719 0.590360 0.187086 0.000000
H453  H     H_    0.348955 0.542640 0.167364 0.000000
H454  H     H_    0.369609 0.560349 0.204151 0.000000
H455  H     H_    0.371846 0.647989 0.182421 0.000000
H456  H     H_    0.465299 0.631384 0.170451 0.000000
H457  H     H_    0.442102 0.612998 0.206502 0.000000
H458  H     H_    0.450418 0.569470 0.176125 0.000000
H459  H     H_    0.386485 0.521160 0.071390 0.000000
H460  H     H_    0.437069 0.548255 0.029766 0.000000
H461  H     H_    0.462643 0.688749 0.074686 0.000000
H462  H     H_    0.491281 0.704645 0.001933 0.000000
C463  C     C_3   0.370392 0.760250 0.063381 0.000000
C464  C     C_3   0.348035 0.777571 0.092974 0.000000
C465  C     C_3   0.326041 0.735608 0.109392 0.000000
C466  C     C_R   0.377719 0.807827 0.114643 0.000000
N85   N     N_R   0.408834 0.788429 0.136140 0.000000
C467  C     C_R   0.408531 0.826503 0.157042 0.000000
C468  C     C_R   0.429409 0.831369 0.184619 0.000000
C469  C     C_R   0.424662 0.875994 0.200348 0.000000
C470  C     C_R   0.393345 0.911485 0.192245 0.000000
C471  C     C_R   0.370118 0.905096 0.165884 0.000000
C472  C     C_R   0.380536 0.864224 0.148370 0.000000
N86   N     N_R   0.361303 0.855003 0.121757 0.000000
C473  C     C_2   0.386422 0.956575 0.210662 0.000000
O85   O     O_2   0.412648 0.965924 0.232165 0.000000
O86   O     O_2   0.351700 0.988438 0.203108 0.000000
H463  H     H_    0.392799 0.727481 0.065812 0.000000
H464  H     H_    0.340287 0.750495 0.047624 0.000000
H465  H     H_    0.392052 0.789663 0.052914 0.000000
H466  H     H_    0.318980 0.802381 0.086660 0.000000
H467  H     H_    0.287806 0.730754 0.101835 0.000000
H468  H     H_    0.347827 0.702646 0.105187 0.000000
H469  H     H_    0.326462 0.743374 0.133647 0.000000
H470  H     H_    0.450210 0.803304 0.194039 0.000000
H471  H     H_    0.444735 0.884115 0.219562 0.000000
H472  H     H_    0.347367 0.933583 0.158490 0.000000
H473  H     H_    0.346245 0.018578 0.214649 0.000000
C474  C     C_3   0.535017 0.801189 0.166223 0.000000
C475  C     C_3   0.562602 0.759672 0.179261 0.000000
C476  C     C_3   0.598615 0.783261 0.200290 0.000000
C477  C     C_R   0.530265 0.727203 0.196072 0.000000
N87   N     N_R   0.535058 0.722961 0.226914 0.000000
C478  C     C_R   0.487414 0.718411 0.234333 0.000000
C479  C     C_R   0.468344 0.735374 0.260485 0.000000
C480  C     C_R   0.418366 0.739530 0.262583 0.000000
C481  C     C_R   0.388233 0.729540 0.238567 0.000000
C482  C     C_R   0.408566 0.719872 0.211255 0.000000
C483  C     C_R   0.457771 0.713774 0.209730 0.000000
N88   N     N_R   0.483784 0.717503 0.184775 0.000000
C484  C     C_2   0.335730 0.735715 0.241055 0.000000
O87   O     O_2   0.319005 0.765662 0.259103 0.000000
O88   O     O_2   0.305868 0.710337 0.221850 0.000000
H474  H     H_    0.557680 0.819966 0.149819 0.000000
H475  H     H_    0.501746 0.788315 0.154622 0.000000
H476  H     H_    0.525790 0.828028 0.184065 0.000000
H477  H     H_    0.577842 0.737789 0.161086 0.000000
H478  H     H_    0.578278 0.794617 0.219811 0.000000
H479  H     H_    0.625077 0.756588 0.207009 0.000000
H480  H     H_    0.615302 0.816948 0.191343 0.000000
H481  H     H_    0.491903 0.751002 0.277337 0.000000
H482  H     H_    0.403044 0.755506 0.282222 0.000000
H483  H     H_    0.387829 0.723363 0.191140 0.000000
H484  H     H_    0.270821 0.713824 0.222662 0.000000
C485  C     C_3   0.509792 0.555099 0.270839 0.000000
C486  C     C_3   0.514220 0.610749 0.275755 0.000000
C487  C     C_3   0.465385 0.628451 0.286076 0.000000
C488  C     C_R   0.553222 0.629829 0.297263 0.000000
N89   N     N_R   0.567087 0.608156 0.323680 0.000000
C489  C     C_R   0.604395 0.639611 0.332788 0.000000
C490  C     C_R   0.635600 0.636156 0.356090 0.000000
C491  C     C_R   0.673682 0.670372 0.360450 0.000000
C492  C     C_R   0.677503 0.711469 0.343278 0.000000
C493  C     C_R   0.645570 0.715393 0.319687 0.000000
C494  C     C_R   0.610361 0.677944 0.314492 0.000000
N90   N     N_R   0.579389 0.673167 0.291541 0.000000
C495  C     C_2   0.713932 0.750834 0.350898 0.000000
O89   O     O_2   0.743857 0.745074 0.370502 0.000000
O90   O     O_2   0.712150 0.794879 0.338064 0.000000
H485  H     H_    0.513733 0.536935 0.292163 0.000000
H486  H     H_    0.473027 0.545152 0.261525 0.000000
H487  H     H_    0.536714 0.542184 0.254072 0.000000
H488  H     H_    0.522090 0.626958 0.253932 0.000000
H489  H     H_    0.470986 0.662894 0.299834 0.000000
H490  H     H_    0.442233 0.634455 0.266375 0.000000
H491  H     H_    0.447386 0.599947 0.299382 0.000000
H492  H     H_    0.630375 0.608292 0.370990 0.000000
H493  H     H_    0.699296 0.665736 0.378347 0.000000
H494  H     H_    0.651652 0.744222 0.304401 0.000000
H495  H     H_    0.735364 0.821141 0.343756 0.000000
C496  C     C_3   0.553878 0.737973 0.359497 0.000000
C497  C     C_3   0.532982 0.765860 0.334408 0.000000
C498  C     C_3   0.492270 0.794014 0.345948 0.000000
C499  C     C_R   0.565658 0.803263 0.320516 0.000000
N91   N     N_R   0.577284 0.850406 0.333270 0.000000
C500  C     C_R   0.610859 0.866206 0.314701 0.000000
C501  C     C_R   0.644627 0.903263 0.319848 0.000000
C502  C     C_R   0.672711 0.917153 0.295769 0.000000
C503  C     C_R   0.658355 0.898608 0.268014 0.000000
C504  C     C_R   0.625315 0.859822 0.265359 0.000000
C505  C     C_R   0.610743 0.837801 0.289720 0.000000
N92   N     N_R   0.584828 0.795107 0.292209 0.000000
C506  C     C_2   0.679863 0.912806 0.240492 0.000000
O91   O     O_2   0.718604 0.936063 0.239544 0.000000
O92   O     O_2   0.658134 0.893007 0.215849 0.000000
H496  H     H_    0.592729 0.747322 0.363072 0.000000
H497  H     H_    0.533740 0.743161 0.380102 0.000000
H498  H     H_    0.545965 0.698673 0.354700 0.000000
H499  H     H_    0.520145 0.737199 0.318202 0.000000
H500  H     H_    0.471162 0.804411 0.326509 0.000000
H501  H     H_    0.472497 0.773670 0.362779 0.000000
H502  H     H_    0.507612 0.826068 0.357535 0.000000
H503  H     H_    0.650411 0.917520 0.342372 0.000000
H504  H     H_    0.702475 0.944120 0.298223 0.000000
H505  H     H_    0.611620 0.846435 0.244961 0.000000
H506  H     H_    0.671716 0.890640 0.196355 0.000000
C507  C     C_3   0.229307 0.753046 0.526991 0.000000
C508  C     C_3   0.272923 0.782143 0.515241 0.000000
C509  C     C_3   0.249332 0.823120 0.500374 0.000000
C510  C     C_R   0.311561 0.804266 0.535755 0.000000
N93   N     N_R   0.328607 0.782414 0.561683 0.000000
C511  C     C_R   0.363475 0.816517 0.570509 0.000000
C512  C     C_R   0.397501 0.813680 0.592609 0.000000
C513  C     C_R   0.426265 0.854819 0.600061 0.000000
C514  C     C_R   0.426639 0.895713 0.582776 0.000000
C515  C     C_R   0.396959 0.895556 0.558128 0.000000
C516  C     C_R   0.366024 0.855505 0.552243 0.000000
N94   N     N_R   0.337121 0.848071 0.528282 0.000000
C517  C     C_2   0.459597 0.938079 0.590016 0.000000
O93   O     O_2   0.489064 0.936164 0.610254 0.000000
O94   O     O_2   0.455396 0.980419 0.575623 0.000000
H507  H     H_    0.237678 0.734613 0.547622 0.000000
H508  H     H_    0.196149 0.775098 0.529614 0.000000
H509  H     H_    0.218229 0.725962 0.509057 0.000000
H510  H     H_    0.291967 0.757758 0.499354 0.000000
H511  H     H_    0.233547 0.847445 0.517403 0.000000
H512  H     H_    0.275925 0.843856 0.486983 0.000000
H513  H     H_    0.218263 0.806794 0.487604 0.000000
H514  H     H_    0.403042 0.780273 0.603658 0.000000
H515  H     H_    0.448944 0.854585 0.619374 0.000000
H516  H     H_    0.397597 0.926764 0.544389 0.000000
H517  H     H_    0.476522 0.008586 0.580825 0.000000
C518  C     C_3   0.422432 0.776817 0.506763 0.000000
C519  C     C_3   0.458903 0.799697 0.486705 0.000000
C520  C     C_3   0.436336 0.797736 0.457921 0.000000
C521  C     C_R   0.471813 0.852182 0.494937 0.000000
N95   N     N_R   0.438468 0.891252 0.496011 0.000000
C522  C     C_R   0.468760 0.929416 0.504838 0.000000
C523  C     C_R   0.458356 0.978591 0.507849 0.000000
C524  C     C_R   0.494391 0.011607 0.518272 0.000000
C525  C     C_R   0.538778 0.994481 0.528152 0.000000
C526  C     C_R   0.548393 0.944348 0.525193 0.000000
C527  C     C_R   0.514834 0.913862 0.510556 0.000000
N96   N     N_R   0.520025 0.866008 0.502153 0.000000
C528  C     C_2   0.576659 0.029871 0.539365 0.000000
O95   O     O_2   0.568717 0.074149 0.540726 0.000000
O96   O     O_2   0.621303 0.014044 0.546629 0.000000
H518  H     H_    0.384592 0.783414 0.499925 0.000000
H519  H     H_    0.426821 0.736331 0.504370 0.000000
H520  H     H_    0.429311 0.792675 0.529187 0.000000
H521  H     H_    0.491748 0.777281 0.484986 0.000000
H522  H     H_    0.462554 0.816703 0.443753 0.000000
H523  H     H_    0.428622 0.758675 0.450388 0.000000
H524  H     H_    0.402887 0.819396 0.460843 0.000000
H525  H     H_    0.423923 0.991584 0.501347 0.000000
H526  H     H_    0.486869 0.050660 0.519756 0.000000
H527  H     H_    0.582184 0.929847 0.532797 0.000000
H528  H     H_    0.646604 0.037854 0.552886 0.000000
C529  C     C_3   0.297092 0.774489 0.442736 0.000000
C530  C     C_3   0.274536 0.818429 0.429034 0.000000
C531  C     C_3   0.220661 0.829642 0.434421 0.000000
C532  C     C_R   0.304536 0.863363 0.426791 0.000000
N97   N     N_R   0.327156 0.894697 0.448898 0.000000
C533  C     C_R   0.334559 0.935513 0.432554 0.000000
C534  C     C_R   0.358927 0.978441 0.440791 0.000000
C535  C     C_R   0.359530 0.016684 0.421031 0.000000
C536  C     C_R   0.334192 0.011474 0.394290 0.000000
C537  C     C_R   0.319020 0.964824 0.383848 0.000000
C538  C     C_R   0.320687 0.927530 0.403492 0.000000
N98   N     N_R   0.305477 0.880812 0.398504 0.000000
C539  C     C_2   0.320795 0.055362 0.378272 0.000000
O97   O     O_2   0.340129 0.095620 0.384547 0.000000
O98   O     O_2   0.284089 0.051993 0.358227 0.000000
H529  H     H_    0.316885 0.752800 0.425218 0.000000
H530  H     H_    0.324185 0.787249 0.459687 0.000000
H531  H     H_    0.267389 0.750506 0.451373 0.000000
H532  H     H_    0.274318 0.807774 0.405812 0.000000
H533  H     H_    0.205143 0.843611 0.413841 0.000000
H534  H     H_    0.199148 0.795733 0.439738 0.000000
H535  H     H_    0.216440 0.860412 0.451204 0.000000
H536  H     H_    0.376098 0.982019 0.462111 0.000000
H537  H     H_    0.376282 0.052025 0.427575 0.000000
H538  H     H_    0.302442 0.958482 0.362160 0.000000
H539  H     H_    0.273596 0.081258 0.348556 0.000000
C540  C     C_3   0.388938 0.083502 0.491171 0.000000
C541  C     C_3   0.338316 0.067952 0.502214 0.000000
C542  C     C_3   0.300438 0.059968 0.477614 0.000000
C543  C     C_R   0.337340 0.026238 0.523245 0.000000
N99   N     N_R   0.340820 0.975049 0.515280 0.000000
C544  C     C_R   0.308564 0.957634 0.534191 0.000000
C545  C     C_R   0.267061 0.935613 0.522698 0.000000
C546  C     C_R   0.225939 0.936182 0.540108 0.000000
C547  C     C_R   0.231351 0.950510 0.569650 0.000000
C548  C     C_R   0.269491 0.980708 0.577947 0.000000
C549  C     C_R   0.302371 0.989924 0.557416 0.000000
N100  N     N_R   0.316216 0.035664 0.551007 0.000000
C550  C     C_2   0.194519 0.945974 0.591632 0.000000
O99   O     O_2   0.151858 0.936951 0.585056 0.000000
O100  O     O_2   0.209378 0.955704 0.619721 0.000000
H540  H     H_    0.404784 0.056388 0.475251 0.000000
H541  H     H_    0.386336 0.119270 0.480031 0.000000
H542  H     H_    0.413865 0.088951 0.510456 0.000000
H543  H     H_    0.324872 0.100173 0.515429 0.000000
H544  H     H_    0.264966 0.074802 0.485020 0.000000
H545  H     H_    0.311605 0.080450 0.457758 0.000000
H546  H     H_    0.293326 0.020143 0.472505 0.000000
H547  H     H_    0.264841 0.925809 0.499208 0.000000
H548  H     H_    0.190997 0.924004 0.530785 0.000000
H549  H     H_    0.266485 0.006812 0.595814 0.000000
H550  H     H_    0.188629 0.958105 0.636636 0.000000
C551  C     C_3   0.596763 0.612700 0.986546 0.000000
C552  C     C_3   0.634049 0.650747 0.998664 0.000000
C553  C     C_3   0.602606 0.689853 0.013719 0.000000
C554  C     C_R   0.668746 0.629542 0.020898 0.000000
N101  N     N_R   0.667204 0.649605 0.049955 0.000000
C555  C     C_R   0.680900 0.611788 0.065447 0.000000
C556  C     C_R   0.678700 0.609633 0.095515 0.000000
C557  C     C_R   0.683880 0.564435 0.107707 0.000000
C558  C     C_R   0.693519 0.523817 0.089187 0.000000
C559  C     C_R   0.700626 0.528624 0.059152 0.000000
C560  C     C_R   0.694067 0.573098 0.047293 0.000000
N102  N     N_R   0.693254 0.583698 0.018117 0.000000
C561  C     C_2   0.705999 0.477890 0.101948 0.000000
O101  O     O_2   0.713738 0.441406 0.086039 0.000000
O102  O     O_2   0.717129 0.478370 0.130765 0.000000
H551  H     H_    0.568533 0.604441 0.003185 0.000000
H552  H     H_    0.575284 0.629135 0.968885 0.000000
H553  H     H_    0.614610 0.578396 0.978959 0.000000
H554  H     H_    0.654280 0.669449 0.980852 0.000000
H555  H     H_    0.625256 0.718985 0.024227 0.000000
H556  H     H_    0.579767 0.706831 0.996679 0.000000
H557  H     H_    0.578521 0.674002 0.030971 0.000000
H558  H     H_    0.668352 0.641306 0.108608 0.000000
H559  H     H_    0.679610 0.561045 0.131452 0.000000
H560  H     H_    0.714489 0.499513 0.046140 0.000000
H561  H     H_    0.734455 0.451049 0.138079 0.000000
C562  C     C_3   0.629690 0.900582 0.017432 0.000000
C563  C     C_3   0.628938 0.854522 0.033737 0.000000
C564  C     C_3   0.588960 0.821054 0.019333 0.000000
C565  C     C_R   0.676147 0.829982 0.032210 0.000000
N103  N     N_R   0.706926 0.843702 0.009291 0.000000
C566  C     C_R   0.724203 0.800393 0.000648 0.000000
C567  C     C_R   0.749355 0.790531 0.975480 0.000000
C568  C     C_R   0.761710 0.742653 0.968856 0.000000
C569  C     C_R   0.754443 0.707802 0.989882 0.000000
C570  C     C_R   0.729029 0.720130 0.014962 0.000000
C571  C     C_R   0.711018 0.765028 0.019210 0.000000
N104  N     N_R   0.681937 0.781103 0.041573 0.000000
C572  C     C_2   0.773445 0.658423 0.987060 0.000000
O103  O     O_2   0.784908 0.637456 0.009313 0.000000
O104  O     O_2   0.774812 0.634256 0.960629 0.000000
H562  H     H_    0.594933 0.920423 0.021357 0.000000
H563  H     H_    0.659918 0.923123 0.027361 0.000000
H564  H     H_    0.633334 0.890530 0.993639 0.000000
H565  H     H_    0.626513 0.869778 0.055892 0.000000
H566  H     H_    0.580803 0.788014 0.032187 0.000000
H567  H     H_    0.554808 0.841810 0.016849 0.000000
H568  H     H_    0.601283 0.808185 0.996830 0.000000
H569  H     H_    0.755511 0.818786 0.960211 0.000000
H570  H     H_    0.776654 0.733787 0.947565 0.000000
H571  H     H_    0.727420 0.697703 0.032509 0.000000
H572  H     H_    0.783600 0.600022 0.959981 0.000000
C573  C     C_3   0.539534 0.411515 0.369443 0.000000
C574  C     C_3   0.559448 0.386947 0.342015 0.000000
C575  C     C_3   0.524751 0.345045 0.332740 0.000000
C576  C     C_R   0.567176 0.422833 0.317806 0.000000
N105  N     N_R   0.570227 0.474722 0.322632 0.000000
C577  C     C_R   0.595883 0.487208 0.298661 0.000000
C578  C     C_R   0.618731 0.531092 0.294544 0.000000
C579  C     C_R   0.628953 0.542707 0.265998 0.000000
C580  C     C_R   0.635128 0.505650 0.244983 0.000000
C581  C     C_R   0.625988 0.457116 0.252518 0.000000
C582  C     C_R   0.601485 0.448994 0.278868 0.000000
N106  N     N_R   0.583993 0.406214 0.289934 0.000000
C583  C     C_2   0.652745 0.519584 0.215760 0.000000
O105  O     O_2   0.639233 0.557899 0.205217 0.000000
O106  O     O_2   0.688122 0.493889 0.202083 0.000000
H573  H     H_    0.501595 0.422479 0.364780 0.000000
H574  H     H_    0.538850 0.384833 0.387587 0.000000
H575  H     H_    0.564084 0.443445 0.375541 0.000000
H576  H     H_    0.595337 0.371651 0.347685 0.000000
H577  H     H_    0.539884 0.325459 0.312968 0.000000
H578  H     H_    0.521124 0.318593 0.350929 0.000000
H579  H     H_    0.488327 0.360102 0.327937 0.000000
H580  H     H_    0.628970 0.554843 0.313004 0.000000
H581  H     H_    0.631811 0.580380 0.259955 0.000000
H582  H     H_    0.633907 0.427885 0.237085 0.000000
H583  H     H_    0.701495 0.506355 0.183901 0.000000
C584  C     C_3   0.485138 0.500083 0.404883 0.000000
C585  C     C_3   0.518829 0.515345 0.430005 0.000000
C586  C     C_3   0.540268 0.468594 0.441994 0.000000
C587  C     C_R   0.559897 0.549013 0.421208 0.000000
N107  N     N_R   0.579104 0.541337 0.392772 0.000000
C588  C     C_R   0.627275 0.537106 0.399292 0.000000
C589  C     C_R   0.664223 0.521859 0.380455 0.000000
C590  C     C_R   0.711681 0.523220 0.391524 0.000000
C591  C     C_R   0.721765 0.542054 0.420315 0.000000
C592  C     C_R   0.683853 0.557752 0.438818 0.000000
C593  C     C_R   0.636788 0.552473 0.428256 0.000000
N108  N     N_R   0.594803 0.562455 0.442997 0.000000
C594  C     C_2   0.772465 0.544664 0.431336 0.000000
O107  O     O_2   0.806197 0.531855 0.415106 0.000000
O108  O     O_2   0.781947 0.560828 0.459538 0.000000
H584  H     H_    0.472446 0.461813 0.408401 0.000000
H585  H     H_    0.453716 0.525125 0.404622 0.000000
H586  H     H_    0.503876 0.499607 0.383515 0.000000
H587  H     H_    0.496043 0.533864 0.446421 0.000000
H588  H     H_    0.569904 0.477785 0.457986 0.000000
H589  H     H_    0.511150 0.445739 0.452439 0.000000
H590  H     H_    0.557890 0.446442 0.424188 0.000000
H591  H     H_    0.656594 0.508933 0.357836 0.000000
H592  H     H_    0.741027 0.510282 0.377198 0.000000
H593  H     H_    0.690620 0.573405 0.460956 0.000000
H594  H     H_    0.815285 0.562170 0.466841 0.000000
C595  C     C_3   0.413130 0.650465 0.392245 0.000000
C596  C     C_3   0.452791 0.633194 0.371329 0.000000
C597  C     C_3   0.498823 0.627615 0.388695 0.000000
C598  C     C_R   0.435551 0.585015 0.357055 0.000000
N109  N     N_R   0.467743 0.548472 0.347153 0.000000
C599  C     C_R   0.436272 0.514540 0.334431 0.000000
C600  C     C_R   0.446271 0.471186 0.318978 0.000000
C601  C     C_R   0.407558 0.442842 0.307218 0.000000
C602  C     C_R   0.359631 0.457941 0.310930 0.000000
C603  C     C_R   0.350802 0.501950 0.325750 0.000000
C604  C     C_R   0.389130 0.529437 0.337134 0.000000
N110  N     N_R   0.385920 0.574063 0.350959 0.000000
C605  C     C_2   0.317373 0.427834 0.300640 0.000000
O109  O     O_2   0.322667 0.392295 0.283611 0.000000
O110  O     O_2   0.272487 0.438059 0.311520 0.000000
H595  H     H_    0.401880 0.619176 0.405692 0.000000
H596  H     H_    0.424959 0.684005 0.405584 0.000000
H597  H     H_    0.380852 0.659053 0.379699 0.000000
H598  H     H_    0.461379 0.660978 0.354602 0.000000
H599  H     H_    0.510767 0.663882 0.398901 0.000000
H600  H     H_    0.490185 0.601698 0.406097 0.000000
H601  H     H_    0.528449 0.614036 0.374257 0.000000
H602  H     H_    0.482683 0.459330 0.315354 0.000000
H603  H     H_    0.415291 0.408672 0.295588 0.000000
H604  H     H_    0.314337 0.514603 0.328547 0.000000
H605  H     H_    0.245489 0.414659 0.308677 0.000000
C606  C     C_3   0.638004 0.815353 0.402545 0.000000
C607  C     C_3   0.584216 0.823444 0.408649 0.000000
C608  C     C_3   0.556963 0.788530 0.428406 0.000000
C609  C     C_R   0.580406 0.872505 0.421283 0.000000
N111  N     N_R   0.594590 0.886072 0.450292 0.000000
C610  C     C_R   0.592818 0.936628 0.448617 0.000000
C611  C     C_R   0.603679 0.973368 0.469703 0.000000
C612  C     C_R   0.598438 0.022561 0.463080 0.000000
C613  C     C_R   0.581291 0.035509 0.435550 0.000000
C614  C     C_R   0.571316 0.998753 0.414039 0.000000
C615  C     C_R   0.577672 0.950265 0.420981 0.000000
N112  N     N_R   0.569334 0.910452 0.402930 0.000000
C616  C     C_2   0.573377 0.087764 0.429447 0.000000
O111  O     O_2   0.586189 0.120396 0.447521 0.000000
O112  O     O_2   0.550912 0.099919 0.404193 0.000000
H606  H     H_    0.660704 0.831705 0.420947 0.000000
H607  H     H_    0.645231 0.776080 0.397872 0.000000
H608  H     H_    0.648197 0.835606 0.382361 0.000000
H609  H     H_    0.566199 0.823717 0.387234 0.000000
H610  H     H_    0.552424 0.805249 0.450807 0.000000
H611  H     H_    0.519607 0.782576 0.419709 0.000000
H612  H     H_    0.573942 0.752613 0.428404 0.000000
H613  H     H_    0.616164 0.965573 0.491139 0.000000
H614  H     H_    0.607233 0.050878 0.480012 0.000000
H615  H     H_    0.559163 0.007868 0.392340 0.000000
H616  H     H_    0.545747 0.134327 0.400250 0.000000
C617  C     C_3   0.438690 0.900868 0.419594 0.000000
C618  C     C_3   0.434741 0.860398 0.395566 0.000000
C619  C     C_3   0.399889 0.816249 0.399041 0.000000
C620  C     C_R   0.427809 0.882400 0.366790 0.000000
N113  N     N_R   0.388341 0.869766 0.347871 0.000000
C621  C     C_R   0.408942 0.878518 0.321247 0.000000
C622  C     C_R   0.398129 0.852732 0.295375 0.000000
C623  C     C_R   0.431913 0.854112 0.272526 0.000000
C624  C     C_R   0.475389 0.881601 0.275584 0.000000
C625  C     C_R   0.486965 0.904255 0.301916 0.000000
C626  C     C_R   0.454788 0.899717 0.324587 0.000000
N114  N     N_R   0.468997 0.901015 0.352800 0.000000
C627  C     C_2   0.513078 0.882036 0.252954 0.000000
O113  O     O_2   0.517335 0.846013 0.236301 0.000000
O114  O     O_2   0.540813 0.923304 0.249187 0.000000
H617  H     H_    0.429409 0.936429 0.409890 0.000000
H618  H     H_    0.416956 0.892399 0.439317 0.000000
H619  H     H_    0.477385 0.904325 0.426905 0.000000
H620  H     H_    0.471543 0.845151 0.396375 0.000000
H621  H     H_    0.373401 0.808939 0.381318 0.000000
H622  H     H_    0.421384 0.782402 0.400867 0.000000
H623  H     H_    0.377997 0.820521 0.418541 0.000000
H624  H     H_    0.365657 0.829190 0.293739 0.000000
H625  H     H_    0.424174 0.832425 0.252506 0.000000
H626  H     H_    0.523766 0.917870 0.305383 0.000000
H627  H     H_    0.564074 0.924699 0.232985 0.000000
C628  C     C_3   0.674329 0.049887 0.305370 0.000000
C629  C     C_3   0.645348 0.024616 0.328844 0.000000
C630  C     C_3   0.643149 0.056889 0.357157 0.000000
C631  C     C_R   0.594483 0.011471 0.318006 0.000000
N115  N     N_R   0.563434 0.983819 0.336689 0.000000
C632  C     C_R   0.521735 0.007434 0.333363 0.000000
C633  C     C_R   0.481520 0.004733 0.351501 0.000000
C634  C     C_R   0.438702 0.022657 0.341060 0.000000
C635  C     C_R   0.436244 0.034918 0.311611 0.000000
C636  C     C_R   0.479076 0.038363 0.294745 0.000000
C637  C     C_R   0.523000 0.035844 0.309106 0.000000
N116  N     N_R   0.569734 0.043297 0.298849 0.000000
C638  C     C_2   0.387924 0.043444 0.299185 0.000000
O115  O     O_2   0.355710 0.060236 0.315122 0.000000
O116  O     O_2   0.378437 0.033494 0.270380 0.000000
H628  H     H_    0.656248 0.084700 0.300624 0.000000
H629  H     H_    0.712020 0.057279 0.313735 0.000000
H630  H     H_    0.675719 0.025181 0.285130 0.000000
H631  H     H_    0.666130 0.992772 0.335122 0.000000
H632  H     H_    0.652031 0.034103 0.376324 0.000000
H633  H     H_    0.670237 0.088106 0.356354 0.000000
H634  H     H_    0.605716 0.071058 0.360300 0.000000
H635  H     H_    0.482753 0.988294 0.372987 0.000000
H636  H     H_    0.406090 0.019557 0.354331 0.000000
H637  H     H_    0.478148 0.034850 0.271009 0.000000
H638  H     H_    0.346503 0.041284 0.262936 0.000000
C639  C     C_3   0.096699 0.983379 0.233411 0.000000
C640  C     C_3   0.083656 0.949071 0.206889 0.000000
C641  C     C_3   0.122385 0.947820 0.183024 0.000000
C642  C     C_R   0.070901 0.899309 0.216712 0.000000
N117  N     N_R   0.104906 0.868930 0.230228 0.000000
C643  C     C_R   0.074550 0.837248 0.243172 0.000000
C644  C     C_R   0.088083 0.807611 0.265369 0.000000
C645  C     C_R   0.052496 0.782547 0.280326 0.000000
C646  C     C_R   0.005849 0.779823 0.268840 0.000000
C647  C     C_R   0.993937 0.806761 0.244123 0.000000
C648  C     C_R   0.026824 0.842644 0.234917 0.000000
N118  N     N_R   0.021460 0.883151 0.217651 0.000000
C649  C     C_2   0.970223 0.747362 0.283092 0.000000
O117  O     O_2   0.976917 0.734638 0.308477 0.000000
O118  O     O_2   0.931005 0.729647 0.268061 0.000000
H639  H     H_    0.124544 0.966842 0.247493 0.000000
H640  H     H_    0.109703 0.020073 0.225886 0.000000
H641  H     H_    0.063208 0.988808 0.247130 0.000000
H642  H     H_    0.050422 0.962314 0.197859 0.000000
H643  H     H_    0.107285 0.949626 0.160851 0.000000
H644  H     H_    0.145218 0.981508 0.184911 0.000000
H645  H     H_    0.141553 0.912487 0.183393 0.000000
H646  H     H_    0.124900 0.808903 0.273275 0.000000
H647  H     H_    0.062071 0.762845 0.299841 0.000000
H648  H     H_    0.961038 0.797959 0.232414 0.000000
H649  H     H_    0.908178 0.709310 0.278711 0.000000
C650  C     C_3   0.839462 0.936198 0.236903 0.000000
C651  C     C_3   0.828112 0.984317 0.225794 0.000000
C652  C     C_3   0.815850 0.017338 0.252445 0.000000
C653  C     C_R   0.869781 0.007049 0.209142 0.000000
N119  N     N_R   0.864516 0.055587 0.200334 0.000000
C654  C     C_R   0.910807 0.067627 0.192851 0.000000
C655  C     C_R   0.927163 0.112424 0.182603 0.000000
C656  C     C_R   0.975594 0.118054 0.174600 0.000000
C657  C     C_R   0.005299 0.077196 0.173292 0.000000
C658  C     C_R   0.986108 0.031191 0.180906 0.000000
C659  C     C_R   0.940614 0.027465 0.193468 0.000000
N120  N     N_R   0.916663 0.986182 0.203288 0.000000
C660  C     C_2   0.055137 0.082200 0.161047 0.000000
O119  O     O_2   0.071747 0.122910 0.154962 0.000000
O120  O     O_2   0.082504 0.041989 0.155985 0.000000
H650  H     H_    0.877679 0.940328 0.244359 0.000000
H651  H     H_    0.815131 0.926891 0.255811 0.000000
H652  H     H_    0.832173 0.909636 0.218076 0.000000
H653  H     H_    0.796610 0.977856 0.211365 0.000000
H654  H     H_    0.812080 0.054999 0.244909 0.000000
H655  H     H_    0.780838 0.005018 0.262745 0.000000
H656  H     H_    0.845937 0.017143 0.269012 0.000000
H657  H     H_    0.902770 0.142474 0.180006 0.000000
H658  H     H_    0.988609 0.153587 0.167109 0.000000
H659  H     H_    0.003553 0.998585 0.174403 0.000000
H660  H     H_    0.115088 0.045570 0.147695 0.000000
C661  C     C_3   0.038207 0.935435 0.122532 0.000000
C662  C     C_3   0.026034 0.881217 0.120466 0.000000
C663  C     C_3   0.047929 0.858653 0.146898 0.000000
C664  C     C_R   0.972126 0.878219 0.121839 0.000000
N121  N     N_R   0.948762 0.898910 0.147038 0.000000
C665  C     C_R   0.911561 0.921844 0.134421 0.000000
C666  C     C_R   0.873130 0.942231 0.149415 0.000000
C667  C     C_R   0.836004 0.962106 0.133880 0.000000
C668  C     C_R   0.834256 0.955626 0.103499 0.000000
C669  C     C_R   0.873388 0.933995 0.088142 0.000000
C670  C     C_R   0.910458 0.913618 0.104300 0.000000
N122  N     N_R   0.946169 0.881677 0.095314 0.000000
C671  C     C_2   0.786172 0.962218 0.089760 0.000000
O121  O     O_2   0.763216 0.999060 0.096067 0.000000
O122  O     O_2   0.765001 0.926242 0.072268 0.000000
H661  H     H_    0.035008 0.947643 0.145722 0.000000
H662  H     H_    0.075653 0.942947 0.114265 0.000000
H663  H     H_    0.010175 0.955805 0.110894 0.000000
H664  H     H_    0.040868 0.865194 0.099495 0.000000
H665  H     H_    0.043097 0.818054 0.145828 0.000000
H666  H     H_    0.086862 0.869996 0.148658 0.000000
H667  H     H_    0.029222 0.873598 0.166306 0.000000
H668  H     H_    0.867393 0.934045 0.172190 0.000000
H669  H     H_    0.805205 0.977319 0.145670 0.000000
H670  H     H_    0.872380 0.930407 0.064550 0.000000
H671  H     H_    0.732418 0.930394 0.064496 0.000000
C672  C     C_3   0.994084 0.738910 0.698091 0.000000
C673  C     C_3   0.014772 0.789918 0.693732 0.000000
C674  C     C_3   0.053365 0.812801 0.713668 0.000000
C675  C     C_R   0.021393 0.792886 0.662804 0.000000
N123  N     N_R   0.042904 0.754318 0.646675 0.000000
C676  C     C_R   0.017749 0.756081 0.620645 0.000000
C677  C     C_R   0.026772 0.729370 0.594585 0.000000
C678  C     C_R   0.995532 0.734461 0.570793 0.000000
C679  C     C_R   0.956246 0.766308 0.573279 0.000000
C680  C     C_R   0.950449 0.796023 0.598935 0.000000
C681  C     C_R   0.982875 0.791677 0.621954 0.000000
N124  N     N_R   0.984711 0.817341 0.648356 0.000000
C682  C     C_2   0.921784 0.769447 0.548405 0.000000
O123  O     O_2   0.926813 0.743316 0.525881 0.000000
O124  O     O_2   0.884169 0.800809 0.550390 0.000000
H672  H     H_    0.023782 0.712469 0.696754 0.000000
H673  H     H_    0.971654 0.738498 0.718296 0.000000
H674  H     H_    0.968661 0.728643 0.679588 0.000000
H675  H     H_    0.987132 0.815190 0.696440 0.000000
H676  H     H_    0.072842 0.843123 0.702258 0.000000
H677  H     H_    0.035656 0.828040 0.734055 0.000000
H678  H     H_    0.077811 0.785012 0.720160 0.000000
H679  H     H_    0.057612 0.705035 0.592893 0.000000
H680  H     H_    0.001713 0.712640 0.550492 0.000000
H681  H     H_    0.920801 0.820796 0.600946 0.000000
H682  H     H_    0.861412 0.802492 0.534032 0.000000
C683  C     C_3   0.097952 0.966012 0.646195 0.000000
C684  C     C_3   0.049024 0.953430 0.634733 0.000000
C685  C     C_3   0.042455 0.899138 0.631634 0.000000
C686  C     C_R   0.015100 0.975588 0.655658 0.000000
N125  N     N_R   0.971245 0.952092 0.663020 0.000000
C687  C     C_R   0.943471 0.991260 0.670091 0.000000
C688  C     C_R   0.894212 0.990138 0.676051 0.000000
C689  C     C_R   0.870560 0.034625 0.679600 0.000000
C690  C     C_R   0.896456 0.079176 0.676683 0.000000
C691  C     C_R   0.946778 0.079381 0.671878 0.000000
C692  C     C_R   0.969969 0.034902 0.668667 0.000000
N126  N     N_R   0.017325 0.026488 0.660981 0.000000
C693  C     C_2   0.870188 0.125996 0.677169 0.000000
O125  O     O_2   0.826820 0.126842 0.683888 0.000000
O126  O     O_2   0.893195 0.167788 0.668664 0.000000
H683  H     H_    0.111176 0.933788 0.657383 0.000000
H684  H     H_    0.118594 0.976338 0.626886 0.000000
H685  H     H_    0.098467 0.997781 0.662115 0.000000
H686  H     H_    0.043380 0.968193 0.612668 0.000000
H687  H     H_    0.006809 0.891202 0.620606 0.000000
H688  H     H_    0.071527 0.884162 0.617110 0.000000
H689  H     H_    0.045287 0.884560 0.654134 0.000000
H690  H     H_    0.874410 0.955495 0.677643 0.000000
H691  H     H_    0.831417 0.034118 0.683558 0.000000
H692  H     H_    0.966423 0.113433 0.669137 0.000000
H693  H     H_    0.875079 0.197919 0.667435 0.000000
C694  C     C_3   0.013070 0.927849 0.723565 0.000000
C695  C     C_3   0.970351 0.922970 0.744532 0.000000
C696  C     C_3   0.935865 0.966529 0.743205 0.000000
C697  C     C_R   0.942575 0.875948 0.738226 0.000000
N127  N     N_R   0.926123 0.863372 0.709827 0.000000
C698  C     C_R   0.904945 0.819044 0.713457 0.000000
C699  C     C_R   0.888755 0.787488 0.691215 0.000000
C700  C     C_R   0.865536 0.745254 0.699647 0.000000
C701  C     C_R   0.858217 0.736319 0.729268 0.000000
C702  C     C_R   0.882492 0.764487 0.751044 0.000000
C703  C     C_R   0.907895 0.805395 0.742108 0.000000
N128  N     N_R   0.931879 0.840194 0.759096 0.000000
C704  C     C_2   0.823497 0.697619 0.736774 0.000000
O127  O     O_2   0.790724 0.685671 0.719486 0.000000
O128  O     O_2   0.828113 0.673856 0.762080 0.000000
H694  H     H_    0.008045 0.904370 0.703162 0.000000
H695  H     H_    0.018974 0.966918 0.717984 0.000000
H696  H     H_    0.045776 0.915108 0.735283 0.000000
H697  H     H_    0.987579 0.921614 0.766051 0.000000
H698  H     H_    0.902549 0.954661 0.730586 0.000000
H699  H     H_    0.923999 0.978427 0.765782 0.000000
H700  H     H_    0.953095 0.999458 0.733254 0.000000
H701  H     H_    0.892487 0.795633 0.668019 0.000000
H702  H     H_    0.851358 0.720386 0.682941 0.000000
H703  H     H_    0.877076 0.757838 0.774084 0.000000
H704  H     H_    0.806490 0.645979 0.765776 0.000000
C705  C     C_3   0.772247 0.909849 0.684174 0.000000
C706  C     C_3   0.805131 0.865792 0.678738 0.000000
C707  C     C_3   0.778729 0.817090 0.680689 0.000000
C708  C     C_R   0.824530 0.866138 0.648475 0.000000
N129  N     N_R   0.793906 0.863545 0.623879 0.000000
C709  C     C_R   0.824820 0.881005 0.602755 0.000000
C710  C     C_R   0.816233 0.888182 0.573295 0.000000
C711  C     C_R   0.849350 0.916584 0.557613 0.000000
C712  C     C_R   0.891032 0.936565 0.571526 0.000000
C713  C     C_R   0.903503 0.921729 0.599578 0.000000
C714  C     C_R   0.869846 0.893237 0.614497 0.000000
N130  N     N_R   0.872769 0.879373 0.642730 0.000000
C715  C     C_2   0.919021 0.976570 0.557799 0.000000
O129  O     O_2   0.913429 0.984710 0.531531 0.000000
O130  O     O_2   0.948381 0.006844 0.574764 0.000000
H705  H     H_    0.754640 0.920471 0.663319 0.000000
H706  H     H_    0.744198 0.901600 0.700972 0.000000
H707  H     H_    0.794580 0.941948 0.692909 0.000000
H708  H     H_    0.834890 0.869850 0.694981 0.000000
H709  H     H_    0.797111 0.789989 0.665942 0.000000
H710  H     H_    0.780837 0.803490 0.703370 0.000000
H711  H     H_    0.741654 0.820880 0.672032 0.000000
H712  H     H_    0.783431 0.875365 0.562768 0.000000
H713  H     H_    0.840197 0.926189 0.535202 0.000000
H714  H     H_    0.936543 0.935561 0.610321 0.000000
H715  H     H_    0.965899 0.034043 0.565887 0.000000
C716  C     C_3   0.306246 0.659149 0.486782 0.000000
C717  C     C_3   0.287651 0.653442 0.517736 0.000000
C718  C     C_3   0.235219 0.632888 0.518481 0.000000
C719  C     C_R   0.319699 0.627271 0.537220 0.000000
N131  N     N_R   0.341751 0.581749 0.530599 0.000000
C720  C     C_R   0.363442 0.574812 0.557130 0.000000
C721  C     C_R   0.394369 0.537857 0.564519 0.000000
C722  C     C_R   0.396895 0.527302 0.594114 0.000000
C723  C     C_R   0.372550 0.555918 0.615207 0.000000
C724  C     C_R   0.352404 0.599889 0.607759 0.000000
C725  C     C_R   0.349959 0.609551 0.578255 0.000000
N132  N     N_R   0.326329 0.646741 0.566202 0.000000
C726  C     C_2   0.368092 0.539258 0.645381 0.000000
O131  O     O_2   0.398953 0.513066 0.655450 0.000000
O132  O     O_2   0.330527 0.553330 0.662607 0.000000
H716  H     H_    0.306939 0.622739 0.475698 0.000000
H717  H     H_    0.280737 0.681692 0.474440 0.000000
H718  H     H_    0.342654 0.678221 0.487850 0.000000
H719  H     H_    0.290903 0.689843 0.528374 0.000000
H720  H     H_    0.212120 0.654327 0.534222 0.000000
H721  H     H_    0.218339 0.635878 0.496556 0.000000
H722  H     H_    0.234203 0.594333 0.525478 0.000000
H723  H     H_    0.405254 0.510013 0.548496 0.000000
H724  H     H_    0.410558 0.492220 0.600036 0.000000
H725  H     H_    0.337124 0.624650 0.624359 0.000000
H726  H     H_    0.327790 0.539090 0.681877 0.000000
C727  C     C_3   0.984226 0.621105 0.596734 0.000000
C728  C     C_3   0.974686 0.639318 0.628559 0.000000
C729  C     C_3   0.922091 0.636922 0.636968 0.000000
C730  C     C_R   0.005665 0.611577 0.647765 0.000000
N133  N     N_R   0.993785 0.562332 0.654199 0.000000
C731  C     C_R   0.038587 0.545969 0.659688 0.000000
C732  C     C_R   0.049138 0.501020 0.669768 0.000000
C733  C     C_R   0.097435 0.491534 0.675132 0.000000
C734  C     C_R   0.133631 0.526459 0.671455 0.000000
C735  C     C_R   0.121947 0.572725 0.662421 0.000000
C736  C     C_R   0.074305 0.581951 0.656878 0.000000
N134  N     N_R   0.055358 0.625758 0.650664 0.000000
C737  C     C_2   0.183371 0.512973 0.678398 0.000000
O133  O     O_2   0.192329 0.469995 0.682580 0.000000
O134  O     O_2   0.219005 0.547436 0.681482 0.000000
H727  H     H_    0.983225 0.580469 0.595782 0.000000
H728  H     H_    0.957952 0.636403 0.580907 0.000000
H729  H     H_    0.022206 0.630616 0.590113 0.000000
H730  H     H_    0.984889 0.677438 0.632579 0.000000
H731  H     H_    0.915404 0.671613 0.650105 0.000000
H732  H     H_    0.899622 0.636201 0.616692 0.000000
H733  H     H_    0.913697 0.604765 0.650469 0.000000
H734  H     H_    0.020738 0.474992 0.674953 0.000000
H735  H     H_    0.108028 0.455585 0.680809 0.000000
H736  H     H_    0.148551 0.601747 0.661635 0.000000
H737  H     H_    0.249974 0.537956 0.689311 0.000000
C738  C     C_3   0.917641 0.633785 0.710820 0.000000
C739  C     C_3   0.893973 0.596912 0.730683 0.000000
C740  C     C_3   0.847570 0.575732 0.717064 0.000000
C741  C     C_R   0.925129 0.554783 0.734567 0.000000
N135  N     N_R   0.929527 0.517325 0.712221 0.000000
C742  C     C_R   0.938313 0.478899 0.729532 0.000000
C743  C     C_R   0.943827 0.430827 0.721514 0.000000
C744  C     C_R   0.939609 0.396225 0.742862 0.000000
C745  C     C_R   0.952936 0.410537 0.771411 0.000000
C746  C     C_R   0.963169 0.460129 0.777770 0.000000
C747  C     C_R   0.945264 0.493150 0.758495 0.000000
N136  N     N_R   0.936015 0.541240 0.763464 0.000000
C748  C     C_2   0.960135 0.372829 0.793279 0.000000
O135  O     O_2   0.993637 0.377678 0.811015 0.000000
O136  O     O_2   0.932839 0.330573 0.792009 0.000000
H738  H     H_    0.948898 0.616829 0.698923 0.000000
H739  H     H_    0.889786 0.646014 0.695172 0.000000
H740  H     H_    0.930504 0.666082 0.724571 0.000000
H741  H     H_    0.887247 0.613484 0.753057 0.000000
H742  H     H_    0.837261 0.541364 0.728511 0.000000
H743  H     H_    0.817002 0.601375 0.718791 0.000000
H744  H     H_    0.855296 0.567208 0.693486 0.000000
H745  H     H_    0.965047 0.422591 0.702554 0.000000
H746  H     H_    0.937526 0.357388 0.736398 0.000000
H747  H     H_    0.977772 0.472533 0.798468 0.000000
H748  H     H_    0.938972 0.304898 0.805815 0.000000
C749  C     C_3   0.077883 0.626031 0.810553 0.000000
C750  C     C_3   0.067310 0.613175 0.841526 0.000000
C751  C     C_3   0.043131 0.653581 0.858788 0.000000
C752  C     C_R   0.043867 0.564302 0.843597 0.000000
N137  N     N_R   0.995250 0.549408 0.836777 0.000000
C753  C     C_R   0.994130 0.504359 0.849356 0.000000
C754  C     C_R   0.954746 0.472529 0.852649 0.000000
C755  C     C_R   0.962338 0.427068 0.864707 0.000000
C756  C     C_R   0.009447 0.412134 0.871631 0.000000
C757  C     C_R   0.049131 0.444562 0.867788 0.000000
C758  C     C_R   0.039809 0.491282 0.858595 0.000000
N138  N     N_R   0.072436 0.528780 0.855753 0.000000
C759  C     C_2   0.016046 0.361160 0.881310 0.000000
O137  O     O_2   0.983530 0.330035 0.876618 0.000000
O138  O     O_2   0.056683 0.348224 0.895863 0.000000
H749  H     H_    0.067711 0.594958 0.795263 0.000000
H750  H     H_    0.057320 0.658458 0.805743 0.000000
H751  H     H_    0.117003 0.635222 0.808777 0.000000
H752  H     H_    0.102046 0.609411 0.852954 0.000000
H753  H     H_    0.029287 0.638885 0.879978 0.000000
H754  H     H_    0.071668 0.682489 0.863500 0.000000
H755  H     H_    0.014190 0.669201 0.845308 0.000000
H756  H     H_    0.918622 0.482476 0.846241 0.000000
H757  H     H_    0.931047 0.402274 0.867406 0.000000
H758  H     H_    0.086454 0.434029 0.871336 0.000000
H759  H     H_    0.081689 0.372131 0.902193 0.000000
C760  C     C_3   0.546011 0.409247 0.767492 0.000000
C761  C     C_3   0.492571 0.407691 0.758419 0.000000
C762  C     C_3   0.459664 0.426349 0.783307 0.000000
C763  C     C_R   0.485323 0.433566 0.730146 0.000000
N139  N     N_R   0.510117 0.477727 0.723013 0.000000
C764  C     C_R   0.496243 0.482210 0.694825 0.000000
C765  C     C_R   0.509217 0.520777 0.677197 0.000000
C766  C     C_R   0.508113 0.512643 0.647016 0.000000
C767  C     C_R   0.490262 0.467771 0.635561 0.000000
C768  C     C_R   0.466258 0.434734 0.654020 0.000000
C769  C     C_R   0.469927 0.441884 0.684392 0.000000
N140  N     N_R   0.458877 0.410489 0.706653 0.000000
C770  C     C_2   0.495801 0.456179 0.603756 0.000000
O139  O     O_2   0.522956 0.481333 0.588543 0.000000
O140  O     O_2   0.468963 0.419158 0.590937 0.000000
H760  H     H_    0.554582 0.442552 0.781415 0.000000
H761  H     H_    0.553723 0.376243 0.780480 0.000000
H762  H     H_    0.569388 0.409541 0.747323 0.000000
H763  H     H_    0.481681 0.368971 0.754053 0.000000
H764  H     H_    0.424818 0.404592 0.782837 0.000000
H765  H     H_    0.477553 0.421941 0.805144 0.000000
H766  H     H_    0.450837 0.465133 0.780055 0.000000
H767  H     H_    0.524078 0.555328 0.686125 0.000000
H768  H     H_    0.522910 0.540707 0.632813 0.000000
H769  H     H_    0.448324 0.403697 0.644445 0.000000
H770  H     H_    0.470704 0.413071 0.569769 0.000000
C771  C     C_3   0.319790 0.437005 0.660728 0.000000
C772  C     C_3   0.295803 0.386669 0.662237 0.000000
C773  C     C_3   0.244878 0.386416 0.649717 0.000000
C774  C     C_R   0.328301 0.352254 0.646132 0.000000
N141  N     N_R   0.326786 0.343448 0.614948 0.000000
C775  C     C_R   0.374623 0.334053 0.609852 0.000000
C776  C     C_R   0.398788 0.332069 0.583095 0.000000
C777  C     C_R   0.447016 0.316288 0.582887 0.000000
C778  C     C_R   0.471043 0.306031 0.609097 0.000000
C779  C     C_R   0.447657 0.313447 0.636158 0.000000
C780  C     C_R   0.400089 0.329344 0.635851 0.000000
N142  N     N_R   0.372838 0.342186 0.659745 0.000000
C781  C     C_2   0.520890 0.287064 0.608107 0.000000
O141  O     O_2   0.544308 0.286413 0.584925 0.000000
O142  O     O_2   0.540587 0.269093 0.632735 0.000000
H771  H     H_    0.343348 0.437590 0.640830 0.000000
H772  H     H_    0.292265 0.466356 0.660489 0.000000
H773  H     H_    0.344383 0.443404 0.679862 0.000000
H774  H     H_    0.294881 0.375733 0.685469 0.000000
H775  H     H_    0.217727 0.383061 0.667820 0.000000
H776  H     H_    0.237474 0.420485 0.637924 0.000000
H777  H     H_    0.241203 0.354141 0.634466 0.000000
H778  H     H_    0.380343 0.340266 0.562734 0.000000
H779  H     H_    0.465534 0.309792 0.562092 0.000000
H780  H     H_    0.466393 0.308753 0.656932 0.000000
H781  H     H_    0.573478 0.256634 0.632095 0.000000
C782  C     C_3   0.824230 0.203619 0.147672 0.000000
C783  C     C_3   0.784176 0.223054 0.168534 0.000000
C784  C     C_3   0.739717 0.193085 0.174375 0.000000
C785  C     C_R   0.806841 0.224357 0.196141 0.000000
N143  N     N_R   0.825528 0.181339 0.206442 0.000000
C786  C     C_R   0.863381 0.199614 0.223026 0.000000
C787  C     C_R   0.897693 0.173343 0.237701 0.000000
C788  C     C_R   0.941333 0.197426 0.245586 0.000000
C789  C     C_R   0.951072 0.245321 0.236412 0.000000
C790  C     C_R   0.914790 0.271085 0.222450 0.000000
C791  C     C_R   0.868660 0.249902 0.219815 0.000000
N144  N     N_R   0.829998 0.267520 0.204844 0.000000
C792  C     C_2   0.000231 0.268027 0.240482 0.000000
O143  O     O_2   0.032223 0.245763 0.252894 0.000000
O144  O     O_2   0.010249 0.313615 0.230581 0.000000
H782  H     H_    0.815411 0.202802 0.123975 0.000000
H783  H     H_    0.857534 0.227133 0.150805 0.000000
H784  H     H_    0.837059 0.167860 0.154282 0.000000
H785  H     H_    0.774447 0.260741 0.164279 0.000000
H786  H     H_    0.730575 0.199793 0.197635 0.000000
H787  H     H_    0.709299 0.205735 0.161362 0.000000
H788  H     H_    0.747731 0.154785 0.175046 0.000000
H789  H     H_    0.892213 0.134385 0.241545 0.000000
H790  H     H_    0.969295 0.176897 0.256413 0.000000
H791  H     H_    0.923666 0.304650 0.211328 0.000000
H792  H     H_    0.042455 0.328703 0.233556 0.000000
C793  C     C_3   0.004449 0.193263 0.710221 0.000000
C794  C     C_3   0.053731 0.211298 0.698876 0.000000
C795  C     C_3   0.095496 0.195968 0.716919 0.000000
C796  C     C_R   0.061224 0.198892 0.667147 0.000000
N145  N     N_R   0.052800 0.150930 0.655570 0.000000
C797  C     C_R   0.023733 0.159581 0.632001 0.000000
C798  C     C_R   0.999567 0.125698 0.613381 0.000000
C799  C     C_R   0.967242 0.143238 0.592711 0.000000
C800  C     C_R   0.959320 0.193842 0.590935 0.000000
C801  C     C_R   0.984529 0.227465 0.609690 0.000000
C802  C     C_R   0.017344 0.209263 0.629425 0.000000
N146  N     N_R   0.045722 0.235262 0.649211 0.000000
C803  C     C_2   0.923993 0.211685 0.569436 0.000000
O145  O     O_2   0.901233 0.182324 0.553053 0.000000
O146  O     O_2   0.916508 0.260619 0.567701 0.000000
H793  H     H_    0.000757 0.202812 0.734334 0.000000
H794  H     H_    0.974422 0.210654 0.698379 0.000000
H795  H     H_    0.000209 0.153579 0.705907 0.000000
H796  H     H_    0.051424 0.251164 0.700159 0.000000
H797  H     H_    0.125754 0.223412 0.715571 0.000000
H798  H     H_    0.084591 0.190505 0.740244 0.000000
H799  H     H_    0.108191 0.162069 0.706925 0.000000
H800  H     H_    0.002889 0.086527 0.615893 0.000000
H801  H     H_    0.947003 0.116901 0.578494 0.000000
H802  H     H_    0.978538 0.266745 0.609190 0.000000
H803  H     H_    0.893223 0.272276 0.553552 0.000000
C804  C     C_3   0.260561 0.849652 0.927804 0.000000
C805  C     C_3   0.211137 0.831851 0.915722 0.000000
C806  C     C_3   0.196601 0.781160 0.924907 0.000000
C807  C     C_R   0.173577 0.866237 0.926088 0.000000
N147  N     N_R   0.163571 0.875529 0.956347 0.000000
C808  C     C_R   0.132083 0.912980 0.954345 0.000000
C809  C     C_R   0.120514 0.946387 0.976510 0.000000
C810  C     C_R   0.089550 0.984311 0.970392 0.000000
C811  C     C_R   0.071618 0.989048 0.941726 0.000000
C812  C     C_R   0.086927 0.957006 0.918759 0.000000
C813  C     C_R   0.119848 0.921328 0.925482 0.000000
N148  N     N_R   0.147469 0.894265 0.906301 0.000000
C814  C     C_2   0.041694 0.031672 0.935269 0.000000
O147  O     O_2   0.033094 0.062947 0.954806 0.000000
O148  O     O_2   0.024106 0.037020 0.907723 0.000000
H804  H     H_    0.258819 0.852649 0.952173 0.000000
H805  H     H_    0.290007 0.824317 0.920811 0.000000
H806  H     H_    0.269228 0.887019 0.919622 0.000000
H807  H     H_    0.212013 0.830200 0.891444 0.000000
H808  H     H_    0.181027 0.762058 0.904814 0.000000
H809  H     H_    0.229265 0.762111 0.932283 0.000000
H810  H     H_    0.168160 0.782630 0.942502 0.000000
H811  H     H_    0.140556 0.946603 0.996798 0.000000
H812  H     H_    0.081252 0.011305 0.987993 0.000000
H813  H     H_    0.076921 0.962335 0.895952 0.000000
H814  H     H_    0.004684 0.065520 0.903908 0.000000
C815  C     C_3   0.109425 0.817221 0.783510 0.000000
C816  C     C_3   0.128154 0.792125 0.810372 0.000000
C817  C     C_3   0.121531 0.737456 0.809031 0.000000
C818  C     C_R   0.177207 0.808006 0.818665 0.000000
N149  N     N_R   0.218842 0.784229 0.809090 0.000000
C819  C     C_R   0.254118 0.815171 0.821312 0.000000
C820  C     C_R   0.303752 0.815741 0.817013 0.000000
C821  C     C_R   0.330258 0.855367 0.829762 0.000000
C822  C     C_R   0.310393 0.887944 0.850725 0.000000
C823  C     C_R   0.260482 0.886974 0.854828 0.000000
C824  C     C_R   0.233782 0.852168 0.838486 0.000000
N150  N     N_R   0.185107 0.849338 0.837157 0.000000
C825  C     C_2   0.341472 0.926063 0.866107 0.000000
O149  O     O_2   0.323787 0.954138 0.884919 0.000000
O150  O     O_2   0.389430 0.930754 0.859285 0.000000
H815  H     H_    0.106607 0.789548 0.765203 0.000000
H816  H     H_    0.072709 0.832001 0.787775 0.000000
H817  H     H_    0.133729 0.848691 0.777910 0.000000
H818  H     H_    0.107588 0.804280 0.828871 0.000000
H819  H     H_    0.128374 0.723608 0.831415 0.000000
H820  H     H_    0.083262 0.730601 0.803361 0.000000
H821  H     H_    0.144694 0.719348 0.792181 0.000000
H822  H     H_    0.321580 0.789455 0.802406 0.000000
H823  H     H_    0.366287 0.862659 0.822291 0.000000
H824  H     H_    0.242437 0.913825 0.869284 0.000000
H825  H     H_    0.409593 0.956132 0.869321 0.000000
C826  C     C_3   0.019663 0.846689 0.892121 0.000000
C827  C     C_3   0.042812 0.824712 0.864439 0.000000
C828  C     C_3   0.016823 0.778675 0.853913 0.000000
C829  C     C_R   0.041708 0.860211 0.840372 0.000000
N151  N     N_R   0.999830 0.866579 0.823415 0.000000
C830  C     C_R   0.001982 0.916188 0.820766 0.000000
C831  C     C_R   0.962146 0.944819 0.816135 0.000000
C832  C     C_R   0.965991 0.995043 0.821737 0.000000
C833  C     C_R   0.009325 0.016271 0.832671 0.000000
C834  C     C_R   0.049893 0.987064 0.837244 0.000000
C835  C     C_R   0.045076 0.936544 0.831727 0.000000
N152  N     N_R   0.073151 0.900876 0.842608 0.000000
C836  C     C_2   0.009349 0.068581 0.842515 0.000000
O151  O     O_2   0.971219 0.091314 0.842840 0.000000
O152  O     O_2   0.050650 0.091453 0.852462 0.000000
H826  H     H_    0.985800 0.825887 0.898186 0.000000
H827  H     H_    0.047533 0.843898 0.909632 0.000000
H828  H     H_    0.012086 0.886369 0.889455 0.000000
H829  H     H_    0.080790 0.816784 0.871177 0.000000
H830  H     H_    0.028587 0.768664 0.831149 0.000000
H831  H     H_    0.026644 0.749672 0.868749 0.000000
H832  H     H_    0.977525 0.785621 0.853736 0.000000
H833  H     H_    0.927627 0.927769 0.809945 0.000000
H834  H     H_    0.933821 0.016996 0.818834 0.000000
H835  H     H_    0.081777 0.002710 0.848186 0.000000
H836  H     H_    0.049575 0.125787 0.859258 0.000000
C837  C     C_3   0.278153 0.975804 0.808963 0.000000
C838  C     C_3   0.226359 0.975652 0.797004 0.000000
C839  C     C_3   0.207052 0.925622 0.785713 0.000000
C840  C     C_R   0.193978 0.998534 0.819742 0.000000
N153  N     N_R   0.178181 0.975728 0.845683 0.000000
C841  C     C_R   0.171831 0.015638 0.863989 0.000000
C842  C     C_R   0.169848 0.017276 0.894366 0.000000
C843  C     C_R   0.157518 0.061350 0.908766 0.000000
C844  C     C_R   0.145828 0.101777 0.892233 0.000000
C845  C     C_R   0.154944 0.100422 0.861761 0.000000
C846  C     C_R   0.174385 0.058294 0.848902 0.000000
N154  N     N_R   0.191904 0.049696 0.820993 0.000000
C847  C     C_2   0.125142 0.146035 0.907119 0.000000
O153  O     O_2   0.119998 0.148124 0.934110 0.000000
O154  O     O_2   0.110804 0.184133 0.891033 0.000000
H837  H     H_    0.276607 0.975998 0.833459 0.000000
H838  H     H_    0.299733 0.944937 0.799146 0.000000
H839  H     H_    0.296779 0.011064 0.803489 0.000000
H840  H     H_    0.228045 0.001104 0.778716 0.000000
H841  H     H_    0.196026 0.928427 0.762362 0.000000
H842  H     H_    0.235408 0.897143 0.786317 0.000000
H843  H     H_    0.174135 0.915455 0.798698 0.000000
H844  H     H_    0.180678 0.986148 0.906720 0.000000
H845  H     H_    0.154746 0.062969 0.932790 0.000000
H846  H     H_    0.145586 0.130960 0.848519 0.000000
H847  H     H_    0.096724 0.212940 0.900879 0.000000
C848  C     C_3   0.033679 0.610391 0.271131 0.000000
C849  C     C_3   0.026043 0.617478 0.238231 0.000000
C850  C     C_3   0.037910 0.670100 0.230684 0.000000
C851  C     C_R   0.051131 0.577998 0.220148 0.000000
N155  N     N_R   0.099395 0.563891 0.226040 0.000000
C852  C     C_R   0.097471 0.516721 0.215164 0.000000
C853  C     C_R   0.125504 0.479134 0.224151 0.000000
C854  C     C_R   0.118812 0.432763 0.210587 0.000000
C855  C     C_R   0.083105 0.424952 0.188996 0.000000
C856  C     C_R   0.048352 0.460773 0.185156 0.000000
C857  C     C_R   0.055054 0.505665 0.200084 0.000000
N156  N     N_R   0.022898 0.542603 0.203282 0.000000
C858  C     C_2   0.082870 0.379080 0.170571 0.000000
O155  O     O_2   0.101749 0.342078 0.179649 0.000000
O156  O     O_2   0.068041 0.379659 0.142100 0.000000
H848  H     H_    0.072253 0.619383 0.277252 0.000000
H849  H     H_    0.008987 0.634992 0.284271 0.000000
H850  H     H_    0.025251 0.571197 0.276056 0.000000
H851  H     H_    0.987330 0.612685 0.233172 0.000000
H852  H     H_    0.040361 0.673326 0.206540 0.000000
H853  H     H_    0.006582 0.692594 0.237825 0.000000
H854  H     H_    0.071175 0.684098 0.242421 0.000000
H855  H     H_    0.148467 0.484797 0.243269 0.000000
H856  H     H_    0.142376 0.403076 0.216271 0.000000
H857  H     H_    0.017065 0.453831 0.171286 0.000000
H858  H     H_    0.072936 0.350884 0.129043 0.000000
C859  C     C_3   0.802225 0.481088 0.181856 0.000000
C860  C     C_3   0.832546 0.443654 0.165679 0.000000
C861  C     C_3   0.842049 0.443941 0.132413 0.000000
C862  C     C_R   0.873123 0.431108 0.184325 0.000000
N157  N     N_R   0.912642 0.461987 0.194172 0.000000
C863  C     C_R   0.926441 0.437949 0.218637 0.000000
C864  C     C_R   0.962023 0.451959 0.239136 0.000000
C865  C     C_R   0.968551 0.423179 0.263529 0.000000
C866  C     C_R   0.937104 0.383100 0.268609 0.000000
C867  C     C_R   0.899200 0.371559 0.248896 0.000000
C868  C     C_R   0.896693 0.397125 0.223065 0.000000
N158  N     N_R   0.862724 0.391153 0.201317 0.000000
C869  C     C_2   0.942673 0.354264 0.295362 0.000000
O157  O     O_2   0.975278 0.364972 0.313175 0.000000
O158  O     O_2   0.912054 0.315529 0.300238 0.000000
H859  H     H_    0.825824 0.502495 0.197992 0.000000
H860  H     H_    0.782170 0.502768 0.165979 0.000000
H861  H     H_    0.775581 0.460878 0.195762 0.000000
H862  H     H_    0.808533 0.411871 0.168087 0.000000
H863  H     H_    0.863058 0.411050 0.125872 0.000000
H864  H     H_    0.807472 0.442898 0.119777 0.000000
H865  H     H_    0.864589 0.474237 0.125092 0.000000
H866  H     H_    0.983978 0.484939 0.237239 0.000000
H867  H     H_    0.997155 0.433837 0.279297 0.000000
H868  H     H_    0.871975 0.343161 0.253494 0.000000
H869  H     H_    0.915987 0.296393 0.317758 0.000000
C870  C     C_3   0.989915 0.630632 0.156424 0.000000
C871  C     C_3   0.009563 0.604340 0.128903 0.000000
C872  C     C_3   0.054377 0.575867 0.137147 0.000000
C873  C     C_R   0.972290 0.568285 0.117310 0.000000
N159  N     N_R   0.962477 0.558773 0.086877 0.000000
C874  C     C_R   0.952163 0.509424 0.087059 0.000000
C875  C     C_R   0.948590 0.476965 0.062835 0.000000
C876  C     C_R   0.954846 0.427178 0.067424 0.000000
C877  C     C_R   0.961136 0.410331 0.096038 0.000000
C878  C     C_R   0.956378 0.442971 0.120412 0.000000
C879  C     C_R   0.953295 0.492444 0.115326 0.000000
N160  N     N_R   0.960519 0.530039 0.135420 0.000000
C880  C     C_2   0.979149 0.359993 0.099736 0.000000
O159  O     O_2   0.998558 0.338349 0.078643 0.000000
O160  O     O_2   0.977285 0.338056 0.126253 0.000000
H870  H     H_    0.991428 0.608117 0.175902 0.000000
H871  H     H_    0.011119 0.665429 0.160826 0.000000
H872  H     H_    0.950849 0.637434 0.153252 0.000000
H873  H     H_    0.020315 0.630771 0.112156 0.000000
H874  H     H_    0.085497 0.591716 0.125584 0.000000
H875  H     H_    0.063549 0.581631 0.160751 0.000000
H876  H     H_    0.051323 0.535858 0.130767 0.000000
H877  H     H_    0.947444 0.490043 0.040536 0.000000
H878  H     H_    0.958046 0.402130 0.048208 0.000000
H879  H     H_    0.959010 0.431004 0.142740 0.000000
H880  H     H_    0.959844 0.351327 0.143386 0.000000
C881  C     C_3   0.628933 0.482303 0.986953 0.000000
C882  C     C_3   0.635749 0.431572 0.998803 0.000000
C883  C     C_3   0.633398 0.394788 0.972590 0.000000
C884  C     C_R   0.683692 0.429567 0.015181 0.000000
N161  N     N_R   0.723527 0.453714 0.002317 0.000000
C885  C     C_R   0.757085 0.417385 0.001731 0.000000
C886  C     C_R   0.799690 0.415303 0.985758 0.000000
C887  C     C_R   0.821770 0.370323 0.980623 0.000000
C888  C     C_R   0.800206 0.327410 0.991169 0.000000
C889  C     C_R   0.758940 0.330721 0.009119 0.000000
C890  C     C_R   0.739719 0.376679 0.015449 0.000000
N162  N     N_R   0.696082 0.385452 0.028170 0.000000
C891  C     C_2   0.819478 0.278750 0.981992 0.000000
O161  O     O_2   0.797043 0.240839 0.988046 0.000000
O162  O     O_2   0.861128 0.275757 0.965888 0.000000
H881  H     H_    0.652838 0.488613 0.967583 0.000000
H882  H     H_    0.590175 0.486380 0.980233 0.000000
H883  H     H_    0.639362 0.509898 0.004377 0.000000
H884  H     H_    0.604663 0.421129 0.012839 0.000000
H885  H     H_    0.598204 0.373900 0.974505 0.000000
H886  H     H_    0.633177 0.413421 0.951077 0.000000
H887  H     H_    0.664550 0.369487 0.972820 0.000000
H888  H     H_    0.812436 0.446445 0.974676 0.000000
H889  H     H_    0.853796 0.368671 0.966402 0.000000
H890  H     H_    0.741924 0.298031 0.017359 0.000000
H891  H     H_    0.873407 0.243715 0.959616 0.000000
C892  C     C_3   0.694365 0.659315 0.917422 0.000000
C893  C     C_3   0.678340 0.610665 0.929828 0.000000
C894  C     C_3   0.626438 0.598588 0.919764 0.000000
C895  C     C_R   0.708457 0.569469 0.919562 0.000000
N163  N     N_R   0.706681 0.553898 0.889556 0.000000
C896  C     C_R   0.713897 0.505162 0.891724 0.000000
C897  C     C_R   0.704785 0.469680 0.869879 0.000000
C898  C     C_R   0.709895 0.420614 0.875899 0.000000
C899  C     C_R   0.721555 0.407302 0.904363 0.000000
C900  C     C_R   0.726896 0.443696 0.926978 0.000000
C901  C     C_R   0.722886 0.492841 0.920466 0.000000
N164  N     N_R   0.721467 0.533245 0.939591 0.000000
C902  C     C_2   0.723958 0.354381 0.910576 0.000000
O163  O     O_2   0.717798 0.323081 0.890523 0.000000
O164  O     O_2   0.732391 0.339866 0.938302 0.000000
H892  H     H_    0.719173 0.654461 0.898394 0.000000
H893  H     H_    0.661817 0.679339 0.910678 0.000000
H894  H     H_    0.712654 0.681811 0.934888 0.000000
H895  H     H_    0.681713 0.611606 0.954011 0.000000
H896  H     H_    0.612734 0.563523 0.929160 0.000000
H897  H     H_    0.601803 0.629628 0.924918 0.000000
H898  H     H_    0.626572 0.593417 0.895713 0.000000
H899  H     H_    0.687832 0.479421 0.849751 0.000000
H900  H     H_    0.701809 0.392770 0.858586 0.000000
H901  H     H_    0.730597 0.433269 0.949171 0.000000
H902  H     H_    0.732632 0.304912 0.942135 0.000000
C903  C     C_3   0.804327 0.562836 0.071462 0.000000
C904  C     C_3   0.839176 0.534270 0.053595 0.000000
C905  C     C_3   0.827894 0.479189 0.051609 0.000000
C906  C     C_R   0.847862 0.554903 0.024293 0.000000
N165  N     N_R   0.817790 0.543302 0.999256 0.000000
C907  C     C_R   0.853210 0.536509 0.978159 0.000000
C908  C     C_R   0.847636 0.515573 0.950032 0.000000
C909  C     C_R   0.885752 0.487570 0.938781 0.000000
C910  C     C_R   0.929500 0.485598 0.954429 0.000000
C911  C     C_R   0.938453 0.518218 0.978369 0.000000
C912  C     C_R   0.899405 0.543549 0.990008 0.000000
N166  N     N_R   0.897254 0.561749 0.018160 0.000000
C913  C     C_2   0.961211 0.442975 0.949737 0.000000
O165  O     O_2   0.951162 0.411322 0.930518 0.000000
O166  O     O_2   0.996079 0.434241 0.969886 0.000000
H903  H     H_    0.782794 0.584019 0.056263 0.000000
H904  H     H_    0.784420 0.537706 0.085973 0.000000
H905  H     H_    0.826457 0.588070 0.085572 0.000000
H906  H     H_    0.873682 0.539785 0.065657 0.000000
H907  H     H_    0.850068 0.461731 0.033522 0.000000
H908  H     H_    0.838080 0.462625 0.072703 0.000000
H909  H     H_    0.788718 0.472006 0.047615 0.000000
H910  H     H_    0.812213 0.511367 0.939948 0.000000
H911  H     H_    0.878634 0.462712 0.919737 0.000000
H912  H     H_    0.971961 0.516885 0.991007 0.000000
H913  H     H_    0.012968 0.403157 0.968871 0.000000
C914  C     C_3   0.823153 0.777390 0.037054 0.000000
C915  C     C_3   0.814776 0.830040 0.045520 0.000000
C916  C     C_3   0.830309 0.832560 0.077605 0.000000
C917  C     C_R   0.841320 0.863787 0.024384 0.000000
N167  N     N_R   0.892025 0.872842 0.025136 0.000000
C918  C     C_R   0.897418 0.907295 0.004168 0.000000
C919  C     C_R   0.938802 0.933884 0.996506 0.000000
C920  C     C_R   0.935682 0.967720 0.974333 0.000000
C921  C     C_R   0.891831 0.974026 0.959459 0.000000
C922  C     C_R   0.850452 0.947228 0.967595 0.000000
C923  C     C_R   0.853885 0.915432 0.990407 0.000000
N168  N     N_R   0.816758 0.889611 0.002528 0.000000
C924  C     C_2   0.889191 0.008990 0.935387 0.000000
O167  O     O_2   0.922593 0.038875 0.931623 0.000000
O168  O     O_2   0.849901 0.008294 0.917301 0.000000
H914  H     H_    0.854478 0.764986 0.049581 0.000000
H915  H     H_    0.792887 0.756669 0.046455 0.000000
H916  H     H_    0.827217 0.770981 0.012909 0.000000
H917  H     H_    0.775533 0.837708 0.045428 0.000000
H918  H     H_    0.812337 0.861914 0.090691 0.000000
H919  H     H_    0.816992 0.798656 0.088375 0.000000
H920  H     H_    0.870563 0.833652 0.078625 0.000000
H921  H     H_    0.973399 0.928576 0.006627 0.000000
H922  H     H_    0.968312 0.988271 0.968330 0.000000
H923  H     H_    0.816349 0.950500 0.956570 0.000000
H924  H     H_    0.848377 0.031271 0.901400 0.000000
C925  C     C_3   0.823460 0.001470 0.031995 0.000000
C926  C     C_3   0.781786 0.034048 0.025776 0.000000
C927  C     C_3   0.796233 0.068170 0.001071 0.000000
C928  C     C_R   0.731769 0.013348 0.021612 0.000000
N169  N     N_R   0.719223 0.974361 0.001626 0.000000
C929  C     C_R   0.676769 0.990665 0.990306 0.000000
C930  C     C_R   0.649447 0.969950 0.967133 0.000000
C931  C     C_R   0.607941 0.992775 0.957853 0.000000
C932  C     C_R   0.593839 0.036482 0.971912 0.000000
C933  C     C_R   0.620723 0.055854 0.995860 0.000000
C934  C     C_R   0.662446 0.032976 0.004730 0.000000
N170  N     N_R   0.695538 0.048013 0.025847 0.000000
C935  C     C_2   0.551648 0.063091 0.960816 0.000000
O169  O     O_2   0.525673 0.044055 0.941263 0.000000
O170  O     O_2   0.542163 0.109164 0.971559 0.000000
H925  H     H_    0.809453 0.963587 0.033035 0.000000
H926  H     H_    0.852353 0.006194 0.015094 0.000000
H927  H     H_    0.840550 0.014218 0.053281 0.000000
H928  H     H_    0.774545 0.054746 0.046050 0.000000
H929  H     H_    0.768093 0.096688 0.998841 0.000000
H930  H     H_    0.831945 0.087122 0.006163 0.000000
H931  H     H_    0.800646 0.046161 0.980037 0.000000
H932  H     H_    0.659115 0.935972 0.956417 0.000000
H933  H     H_    0.587391 0.976450 0.939243 0.000000
H934  H     H_    0.610597 0.089934 0.005494 0.000000
H935  H     H_    0.514622 0.126719 0.964036 0.000000
C936  C     C_3   0.614679 0.851859 0.925124 0.000000
C937  C     C_3   0.664281 0.831315 0.933747 0.000000
C938  C     C_3   0.666649 0.776065 0.927570 0.000000
C939  C     C_R   0.707029 0.859912 0.920761 0.000000
N171  N     N_R   0.706477 0.872265 0.890835 0.000000
C940  C     C_R   0.719233 0.920453 0.893106 0.000000
C941  C     C_R   0.701499 0.954635 0.874792 0.000000
C942  C     C_R   0.708658 0.004198 0.881630 0.000000
C943  C     C_R   0.730288 0.019428 0.908287 0.000000
C944  C     C_R   0.742008 0.984273 0.928825 0.000000
C945  C     C_R   0.735218 0.934297 0.921074 0.000000
N172  N     N_R   0.730561 0.895650 0.939542 0.000000
C946  C     C_2   0.735609 0.072902 0.915297 0.000000
O171  O     O_2   0.726052 0.102547 0.896493 0.000000
O172  O     O_2   0.750807 0.089780 0.942284 0.000000
H936  H     H_    0.616608 0.870315 0.903677 0.000000
H937  H     H_    0.585228 0.822860 0.924275 0.000000
H938  H     H_    0.602959 0.879397 0.942366 0.000000
H939  H     H_    0.665946 0.837161 0.958038 0.000000
H940  H     H_    0.671623 0.757721 0.948783 0.000000
H941  H     H_    0.631394 0.760013 0.919852 0.000000
H942  H     H_    0.696927 0.767554 0.911781 0.000000
H943  H     H_    0.677430 0.942987 0.857077 0.000000
H944  H     H_    0.694412 0.030717 0.866678 0.000000
H945  H     H_    0.752930 0.996242 0.950849 0.000000
H946  H     H_    0.754281 0.125067 0.946495 0.000000
C947  C     C_3   0.037634 0.761341 0.991641 0.000000
C948  C     C_3   0.053124 0.813909 0.986862 0.000000
C949  C     C_3   0.019397 0.840732 0.966766 0.000000
C950  C     C_R   0.059489 0.842542 0.015543 0.000000
N173  N     N_R   0.021897 0.863784 0.032434 0.000000
C951  C     C_R   0.044939 0.903754 0.044819 0.000000
C952  C     C_R   0.022634 0.946236 0.054774 0.000000
C953  C     C_R   0.051884 0.987233 0.061993 0.000000
C954  C     C_R   0.102360 0.983161 0.062628 0.000000
C955  C     C_R   0.124284 0.941053 0.050512 0.000000
C956  C     C_R   0.094262 0.902379 0.039857 0.000000
N174  N     N_R   0.105216 0.862868 0.021501 0.000000
C957  C     C_2   0.131634 0.022009 0.078318 0.000000
O173  O     O_2   0.169796 0.011490 0.090325 0.000000
O174  O     O_2   0.114290 0.068118 0.082168 0.000000
H947  H     H_    0.009745 0.748079 0.975506 0.000000
H948  H     H_    0.070134 0.738033 0.989055 0.000000
H949  H     H_    0.023929 0.759246 0.014351 0.000000
H950  H     H_    0.089340 0.812457 0.975640 0.000000
H951  H     H_    0.040177 0.871298 0.956625 0.000000
H952  H     H_    0.003191 0.815237 0.949473 0.000000
H953  H     H_    0.990246 0.858353 0.979554 0.000000
H954  H     H_    0.983177 0.948312 0.056305 0.000000
H955  H     H_    0.034970 0.020794 0.070130 0.000000
H956  H     H_    0.163439 0.940683 0.048003 0.000000
H957  H     H_    0.132949 0.093079 0.093595 0.000000
C958  C     C_3   0.040016 0.684624 0.061380 0.000000
C959  C     C_3   0.007017 0.719945 0.076911 0.000000
C960  C     C_3   0.025192 0.772069 0.081492 0.000000
C961  C     C_R   0.963104 0.720986 0.058667 0.000000
N175  N     N_R   0.948493 0.765437 0.047083 0.000000
C962  C     C_R   0.928044 0.748190 0.021887 0.000000
C963  C     C_R   0.923992 0.774346 0.997070 0.000000
C964  C     C_R   0.912209 0.748447 0.971391 0.000000
C965  C     C_R   0.892854 0.701741 0.973048 0.000000
C966  C     C_R   0.895996 0.675996 0.998482 0.000000
C967  C     C_R   0.921791 0.698160 0.021166 0.000000
N176  N     N_R   0.945273 0.677696 0.043782 0.000000
C968  C     C_2   0.869978 0.680212 0.947223 0.000000
O175  O     O_2   0.867789 0.635467 0.943504 0.000000
O176  O     O_2   0.850273 0.710627 0.927854 0.000000
H958  H     H_    0.025172 0.647051 0.064788 0.000000
H959  H     H_    0.039045 0.691283 0.037484 0.000000
H960  H     H_    0.076278 0.686010 0.071469 0.000000
H961  H     H_    0.003398 0.705005 0.098471 0.000000
H962  H     H_    0.051097 0.773453 0.099471 0.000000
H963  H     H_    0.041751 0.786495 0.061297 0.000000
H964  H     H_    0.994532 0.794791 0.089698 0.000000
H965  H     H_    0.936527 0.811692 0.996939 0.000000
H966  H     H_    0.916220 0.764743 0.950065 0.000000
H967  H     H_    0.881302 0.639471 0.999228 0.000000
H968  H     H_    0.824768 0.699921 0.914213 0.000000
C969  C     C_3   0.829095 0.925017 0.788311 0.000000
C970  C     C_3   0.803015 0.874842 0.788978 0.000000
C971  C     C_3   0.804700 0.851887 0.758354 0.000000
C972  C     C_R   0.821566 0.846363 0.814107 0.000000
N177  N     N_R   0.870892 0.850606 0.821265 0.000000
C973  C     C_R   0.869298 0.862603 0.850189 0.000000
C974  C     C_R   0.906864 0.881615 0.867069 0.000000
C975  C     C_R   0.899517 0.888913 0.896396 0.000000
C976  C     C_R   0.860053 0.865068 0.908549 0.000000
C977  C     C_R   0.819250 0.850281 0.891495 0.000000
C978  C     C_R   0.823638 0.855058 0.861326 0.000000
N178  N     N_R   0.791237 0.844298 0.839042 0.000000
C979  C     C_2   0.869271 0.846220 0.937158 0.000000
O177  O     O_2   0.909222 0.853649 0.948650 0.000000
O178  O     O_2   0.836827 0.816488 0.949706 0.000000
H969  H     H_    0.832588 0.941956 0.811091 0.000000
H970  H     H_    0.866068 0.920333 0.778943 0.000000
H971  H     H_    0.808865 0.949733 0.773786 0.000000
H972  H     H_    0.764263 0.878592 0.793460 0.000000
H973  H     H_    0.795631 0.811826 0.757888 0.000000
H974  H     H_    0.778183 0.872004 0.745338 0.000000
H975  H     H_    0.839333 0.861625 0.747873 0.000000
H976  H     H_    0.941542 0.890995 0.858966 0.000000
H977  H     H_    0.929908 0.903890 0.909557 0.000000
H978  H     H_    0.789407 0.828964 0.900585 0.000000
H979  H     H_    0.842398 0.807720 0.969865 0.000000
C980  C     C_3   0.933953 0.684101 0.877589 0.000000
C981  C     C_3   0.900447 0.701652 0.854021 0.000000
C982  C     C_3   0.881258 0.751428 0.862845 0.000000
C983  C     C_R   0.923824 0.700704 0.823875 0.000000
N179  N     N_R   0.940898 0.742861 0.808820 0.000000
C984  C     C_R   0.967905 0.720404 0.787443 0.000000
C985  C     C_R   0.004727 0.741306 0.771390 0.000000
C986  C     C_R   0.033781 0.709176 0.754552 0.000000
C987  C     C_R   0.020643 0.659765 0.750972 0.000000
C988  C     C_R   0.988989 0.639707 0.770266 0.000000
C989  C     C_R   0.963141 0.670314 0.787886 0.000000
N180  N     N_R   0.935639 0.655175 0.810051 0.000000
C990  C     C_2   0.041780 0.626959 0.728720 0.000000
O179  O     O_2   0.066962 0.643260 0.709114 0.000000
O180  O     O_2   0.035394 0.578072 0.730363 0.000000
H980  H     H_    0.961893 0.712130 0.884061 0.000000
H981  H     H_    0.912861 0.675667 0.897321 0.000000
H982  H     H_    0.949549 0.648937 0.869908 0.000000
H983  H     H_    0.870475 0.674457 0.853489 0.000000
H984  H     H_    0.868348 0.767065 0.842226 0.000000
H985  H     H_    0.850112 0.747483 0.878202 0.000000
H986  H     H_    0.908861 0.775375 0.874553 0.000000
H987  H     H_    0.012056 0.780526 0.773280 0.000000
H988  H     H_    0.065901 0.721882 0.743332 0.000000
H989  H     H_    0.991459 0.601831 0.775082 0.000000
H990  H     H_    0.055638 0.557708 0.717769 0.000000
C991  C     C_3   0.577573 0.888156 0.840682 0.000000
C992  C     C_3   0.598556 0.850455 0.818463 0.000000
C993  C     C_3   0.565370 0.808457 0.808279 0.000000
C994  C     C_R   0.631538 0.873298 0.796977 0.000000
N181  N     N_R   0.617650 0.908544 0.775886 0.000000
C995  C     C_R   0.653066 0.943356 0.781188 0.000000
C996  C     C_R   0.649940 0.992298 0.775116 0.000000
C997  C     C_R   0.687166 0.024902 0.784317 0.000000
C998  C     C_R   0.725661 0.008607 0.801263 0.000000
C999  C     C_R   0.725429 0.959930 0.810008 0.000000
C1000 C     C_R   0.688293 0.927783 0.800261 0.000000
N182  N     N_R   0.676894 0.882106 0.810400 0.000000
C1001 C     C_2   0.764108 0.043874 0.812091 0.000000
O181  O     O_2   0.764686 0.086544 0.804136 0.000000
O182  O     O_2   0.798675 0.029474 0.831065 0.000000
H991  H     H_    0.566162 0.921761 0.829521 0.000000
H992  H     H_    0.547560 0.871524 0.853916 0.000000
H993  H     H_    0.606715 0.899924 0.856567 0.000000
H994  H     H_    0.626719 0.832538 0.831067 0.000000
H995  H     H_    0.552471 0.814819 0.785849 0.000000
H996  H     H_    0.587101 0.774612 0.808555 0.000000
H997  H     H_    0.535301 0.802589 0.824269 0.000000
H998  H     H_    0.616387 0.005806 0.766587 0.000000
H999  H     H_    0.684431 0.063634 0.779462 0.000000
H1000 H     H_    0.752298 0.947836 0.825501 0.000000
H1001 H     H_    0.823819 0.052796 0.838206 0.000000
C1002 C     C_3   0.788859 0.671857 0.825479 0.000000
C1003 C     C_3   0.768768 0.721400 0.830309 0.000000
C1004 C     C_3   0.769273 0.745950 0.801284 0.000000
C1005 C     C_R   0.719056 0.715963 0.841153 0.000000
N183  N     N_R   0.692863 0.758789 0.847167 0.000000
C1006 C     C_R   0.649123 0.738854 0.854810 0.000000
C1007 C     C_R   0.609569 0.763631 0.866125 0.000000
C1008 C     C_R   0.567887 0.737311 0.873442 0.000000
C1009 C     C_R   0.566253 0.686229 0.869806 0.000000
C1010 C     C_R   0.606549 0.661313 0.858120 0.000000
C1011 C     C_R   0.648986 0.687780 0.852456 0.000000
N184  N     N_R   0.694194 0.670156 0.845430 0.000000
C1012 C     C_2   0.523888 0.659176 0.881791 0.000000
O183  O     O_2   0.488364 0.681774 0.891021 0.000000
O184  O     O_2   0.525975 0.610209 0.885585 0.000000
H1002 H     H_    0.825238 0.674440 0.814998 0.000000
H1003 H     H_    0.790945 0.658102 0.847709 0.000000
H1004 H     H_    0.764253 0.648387 0.811297 0.000000
H1005 H     H_    0.789108 0.743980 0.847038 0.000000
H1006 H     H_    0.743899 0.777367 0.800837 0.000000
H1007 H     H_    0.807181 0.757372 0.796594 0.000000
H1008 H     H_    0.759256 0.717538 0.784574 0.000000
H1009 H     H_    0.611890 0.802438 0.871845 0.000000
H1010 H     H_    0.537666 0.757199 0.883444 0.000000
H1011 H     H_    0.605237 0.622254 0.854313 0.000000
H1012 H     H_    0.499865 0.593191 0.895925 0.000000
C1013 C     C_3   0.115718 0.567361 0.073080 0.000000
C1014 C     C_3   0.092590 0.542827 0.046067 0.000000
C1015 C     C_3   0.058436 0.500979 0.053253 0.000000
C1016 C     C_R   0.074041 0.578924 0.025837 0.000000
N185  N     N_R   0.025255 0.589656 0.020594 0.000000
C1017 C     C_R   0.029369 0.612865 0.994647 0.000000
C1018 C     C_R   0.992717 0.627220 0.976829 0.000000
C1019 C     C_R   0.004428 0.653398 0.952124 0.000000
C1020 C     C_R   0.052859 0.665370 0.945739 0.000000
C1021 C     C_R   0.090179 0.644404 0.961665 0.000000
C1022 C     C_R   0.076841 0.618243 0.986073 0.000000
N186  N     N_R   0.106489 0.596789 0.005155 0.000000
C1023 C     C_2   0.061982 0.705530 0.925377 0.000000
O185  O     O_2   0.029087 0.733794 0.920623 0.000000
O186  O     O_2   0.106230 0.714066 0.913370 0.000000
H1013 H     H_    0.093668 0.599766 0.079458 0.000000
H1014 H     H_    0.118736 0.540090 0.090745 0.000000
H1015 H     H_    0.152932 0.580798 0.067862 0.000000
H1016 H     H_    0.120660 0.526658 0.032400 0.000000
H1017 H     H_    0.032157 0.494438 0.034730 0.000000
H1018 H     H_    0.079715 0.466971 0.055606 0.000000
H1019 H     H_    0.041859 0.509841 0.075021 0.000000
H1020 H     H_    0.956060 0.616577 0.981153 0.000000
H1021 H     H_    0.975186 0.666464 0.938586 0.000000
H1022 H     H_    0.128417 0.650746 0.956813 0.000000
H1023 H     H_    0.133236 0.693195 0.917178 0.000000
C1024 C     C_3   0.229045 0.624242 0.592003 0.000000
C1025 C     C_3   0.210990 0.645067 0.621270 0.000000
C1026 C     C_3   0.245353 0.638786 0.646729 0.000000
C1027 C     C_R   0.202939 0.696982 0.619239 0.000000
N187  N     N_R   0.236328 0.727596 0.605066 0.000000
C1028 C     C_R   0.207525 0.765955 0.599173 0.000000
C1029 C     C_R   0.219139 0.808640 0.584979 0.000000
C1030 C     C_R   0.181755 0.832840 0.572199 0.000000
C1031 C     C_R   0.134051 0.820675 0.577496 0.000000
C1032 C     C_R   0.124535 0.788167 0.599335 0.000000
C1033 C     C_R   0.160528 0.757439 0.608203 0.000000
N188  N     N_R   0.156292 0.715146 0.623353 0.000000
C1034 C     C_2   0.094753 0.844907 0.561566 0.000000
O187  O     O_2   0.104720 0.871757 0.541099 0.000000
O188  O     O_2   0.047475 0.835854 0.568384 0.000000
H1024 H     H_    0.243861 0.653483 0.578515 0.000000
H1025 H     H_    0.256254 0.595678 0.595546 0.000000
H1026 H     H_    0.197426 0.608278 0.579380 0.000000
H1027 H     H_    0.174649 0.628260 0.623895 0.000000
H1028 H     H_    0.224097 0.646321 0.667179 0.000000
H1029 H     H_    0.259718 0.601023 0.646137 0.000000
H1030 H     H_    0.275680 0.666620 0.645912 0.000000
H1031 H     H_    0.255331 0.820705 0.579823 0.000000
H1032 H     H_    0.189937 0.858903 0.556323 0.000000
H1033 H     H_    0.092567 0.793436 0.611139 0.000000
H1034 H     H_    0.021884 0.851220 0.557433 0.000000
C1035 C     C_3   0.175250 0.680222 0.050487 0.000000
C1036 C     C_3   0.144201 0.708243 0.029542 0.000000
C1037 C     C_3   0.135900 0.757368 0.043842 0.000000
C1038 C     C_R   0.171981 0.715727 0.002405 0.000000
N189  N     N_R   0.200001 0.675899 0.992785 0.000000
C1039 C     C_R   0.241433 0.700039 0.984411 0.000000
C1040 C     C_R   0.285366 0.679764 0.976899 0.000000
C1041 C     C_R   0.327010 0.710037 0.977526 0.000000
C1042 C     C_R   0.323578 0.760730 0.983763 0.000000
C1043 C     C_R   0.278056 0.781232 0.988839 0.000000
C1044 C     C_R   0.237258 0.750529 0.988325 0.000000
N190  N     N_R   0.191428 0.763048 0.996612 0.000000
C1045 C     C_2   0.368033 0.792553 0.985259 0.000000
O189  O     O_2   0.408298 0.774720 0.981130 0.000000
O190  O     O_2   0.364615 0.841555 0.991521 0.000000
H1035 H     H_    0.210344 0.701110 0.053619 0.000000
H1036 H     H_    0.157515 0.676636 0.072298 0.000000
H1037 H     H_    0.181240 0.642488 0.041508 0.000000
H1038 H     H_    0.110919 0.687754 0.023537 0.000000
H1039 H     H_    0.112365 0.776062 0.029209 0.000000
H1040 H     H_    0.119201 0.755244 0.065745 0.000000
H1041 H     H_    0.171318 0.776332 0.046372 0.000000
H1042 H     H_    0.287450 0.641071 0.971417 0.000000
H1043 H     H_    0.362175 0.693646 0.972917 0.000000
H1044 H     H_    0.274874 0.819712 0.995017 0.000000
H1045 H     H_    0.393919 0.862383 0.992773 0.000000
C1046 C     C_3   0.222258 0.809015 0.091030 0.000000
C1047 C     C_3   0.197779 0.854322 0.080733 0.000000
C1048 C     C_3   0.185152 0.890414 0.106269 0.000000
C1049 C     C_R   0.233463 0.876444 0.060650 0.000000
N191  N     N_R   0.276539 0.899055 0.071129 0.000000
C1050 C     C_R   0.293953 0.919131 0.045859 0.000000
C1051 C     C_R   0.334462 0.949626 0.042600 0.000000
C1052 C     C_R   0.341769 0.971545 0.015534 0.000000
C1053 C     C_R   0.308365 0.963432 0.992316 0.000000
C1054 C     C_R   0.268855 0.930804 0.995523 0.000000
C1055 C     C_R   0.263168 0.908410 0.022199 0.000000
N192  N     N_R   0.225584 0.878638 0.030169 0.000000
C1056 C     C_2   0.313446 0.991100 0.964965 0.000000
O191  O     O_2   0.349656 0.017457 0.961013 0.000000
O192  O     O_2   0.277093 0.989141 0.944673 0.000000
H1046 H     H_    0.248992 0.821637 0.107860 0.000000
H1047 H     H_    0.196545 0.781001 0.099435 0.000000
H1048 H     H_    0.241728 0.791592 0.071777 0.000000
H1049 H     H_    0.163601 0.845512 0.068584 0.000000
H1050 H     H_    0.147777 0.903864 0.102858 0.000000
H1051 H     H_    0.184560 0.871468 0.127535 0.000000
H1052 H     H_    0.210745 0.922841 0.107470 0.000000
H1053 H     H_    0.359612 0.957412 0.060600 0.000000
H1054 H     H_    0.372830 0.996752 0.013175 0.000000
H1055 H     H_    0.241599 0.925200 0.978338 0.000000
H1056 H     H_    0.279420 0.009015 0.927291 0.000000
C1057 C     C_3   0.695616 0.252045 0.239601 0.000000
C1058 C     C_3   0.685589 0.285611 0.214906 0.000000
C1059 C     C_3   0.632435 0.280913 0.206493 0.000000
C1060 C     C_R   0.697118 0.334295 0.227284 0.000000
N193  N     N_R   0.668736 0.352351 0.250225 0.000000
C1061 C     C_R   0.702053 0.379436 0.266375 0.000000
C1062 C     C_R   0.697643 0.396285 0.295492 0.000000
C1063 C     C_R   0.737481 0.419551 0.309102 0.000000
C1064 C     C_R   0.780976 0.426175 0.293526 0.000000
C1065 C     C_R   0.784753 0.408990 0.264010 0.000000
C1066 C     C_R   0.745750 0.382818 0.251439 0.000000
N194  N     N_R   0.744347 0.354195 0.225938 0.000000
C1067 C     C_2   0.823572 0.448568 0.309228 0.000000
O193  O     O_2   0.820412 0.461602 0.335458 0.000000
O194  O     O_2   0.866856 0.453050 0.295226 0.000000
H1057 H     H_    0.680428 0.214759 0.233759 0.000000
H1058 H     H_    0.735770 0.253255 0.243036 0.000000
H1059 H     H_    0.678819 0.265145 0.260669 0.000000
H1060 H     H_    0.710381 0.279065 0.196151 0.000000
H1061 H     H_    0.618483 0.316972 0.201517 0.000000
H1062 H     H_    0.628029 0.255207 0.186959 0.000000
H1063 H     H_    0.610751 0.267964 0.225094 0.000000
H1064 H     H_    0.665443 0.389140 0.308485 0.000000
H1065 H     H_    0.734306 0.431762 0.332225 0.000000
H1066 H     H_    0.817074 0.415862 0.251379 0.000000
H1067 H     H_    0.895504 0.463397 0.306609 0.000000
C1068 C     C_3   0.565204 0.419514 0.157744 0.000000
C1069 C     C_3   0.564930 0.409083 0.190133 0.000000
C1070 C     C_3   0.541006 0.452016 0.206922 0.000000
C1071 C     C_R   0.538709 0.361738 0.196512 0.000000
N195  N     N_R   0.493443 0.354388 0.182565 0.000000
C1072 C     C_R   0.463232 0.353446 0.206343 0.000000
C1073 C     C_R   0.412816 0.355881 0.206510 0.000000
C1074 C     C_R   0.388285 0.343628 0.232117 0.000000
C1075 C     C_R   0.414464 0.333658 0.257503 0.000000
C1076 C     C_R   0.464778 0.342971 0.258411 0.000000
C1077 C     C_R   0.489204 0.349194 0.231964 0.000000
N196  N     N_R   0.538402 0.350330 0.226582 0.000000
C1078 C     C_2   0.388959 0.311330 0.282735 0.000000
O195  O     O_2   0.348427 0.291892 0.279179 0.000000
O196  O     O_2   0.410532 0.310705 0.309595 0.000000
H1068 H     H_    0.587975 0.392539 0.145839 0.000000
H1069 H     H_    0.527484 0.415892 0.149671 0.000000
H1070 H     H_    0.580285 0.457327 0.154141 0.000000
H1071 H     H_    0.601836 0.407453 0.197815 0.000000
H1072 H     H_    0.537578 0.445762 0.230982 0.000000
H1073 H     H_    0.561238 0.487101 0.203097 0.000000
H1074 H     H_    0.504283 0.456224 0.198710 0.000000
H1075 H     H_    0.392502 0.361435 0.186332 0.000000
H1076 H     H_    0.348837 0.339232 0.231527 0.000000
H1077 H     H_    0.484916 0.339450 0.278476 0.000000
H1078 H     H_    0.394046 0.294635 0.325779 0.000000
C1079 C     C_3   0.557008 0.162415 0.162246 0.000000
C1080 C     C_3   0.579305 0.124239 0.181329 0.000000
C1081 C     C_3   0.610017 0.154742 0.203424 0.000000
C1082 C     C_R   0.538445 0.096954 0.194732 0.000000
N197  N     N_R   0.535266 0.094142 0.225640 0.000000
C1083 C     C_R   0.486039 0.095121 0.229036 0.000000
C1084 C     C_R   0.463267 0.116047 0.253311 0.000000
C1085 C     C_R   0.414390 0.126991 0.251717 0.000000
C1086 C     C_R   0.388081 0.116186 0.225843 0.000000
C1087 C     C_R   0.411885 0.096976 0.200627 0.000000
C1088 C     C_R   0.461783 0.091158 0.202207 0.000000
N198  N     N_R   0.493772 0.092812 0.179291 0.000000
C1089 C     C_2   0.336461 0.129859 0.224970 0.000000
O197  O     O_2   0.316681 0.147482 0.247219 0.000000
O198  O     O_2   0.311604 0.126584 0.199264 0.000000
H1079 H     H_    0.525728 0.179938 0.173657 0.000000
H1080 H     H_    0.584448 0.191954 0.159227 0.000000
H1081 H     H_    0.544966 0.147013 0.140624 0.000000
H1082 H     H_    0.601830 0.096584 0.169661 0.000000
H1083 H     H_    0.648311 0.157915 0.195599 0.000000
H1084 H     H_    0.594580 0.191413 0.206121 0.000000
H1085 H     H_    0.608369 0.142336 0.225771 0.000000
H1086 H     H_    0.484258 0.124820 0.273020 0.000000
H1087 H     H_    0.396996 0.143786 0.271134 0.000000
H1088 H     H_    0.393237 0.091219 0.179626 0.000000
H1089 H     H_    0.280814 0.143273 0.198170 0.000000
C1090 C     C_3   0.503538 0.216297 0.229524 0.000000
C1091 C     C_3   0.518852 0.234802 0.259526 0.000000
C1092 C     C_3   0.483385 0.225335 0.285093 0.000000
C1093 C     C_R   0.569498 0.225079 0.267007 0.000000
N199  N     N_R   0.581067 0.180942 0.280481 0.000000
C1094 C     C_R   0.601596 0.199708 0.305959 0.000000
C1095 C     C_R   0.614258 0.174211 0.330256 0.000000
C1096 C     C_R   0.637860 0.200053 0.353544 0.000000
C1097 C     C_R   0.649155 0.250570 0.351742 0.000000
C1098 C     C_R   0.635251 0.275868 0.326933 0.000000
C1099 C     C_R   0.610194 0.249948 0.304783 0.000000
N200  N     N_R   0.591452 0.267592 0.279686 0.000000
C1100 C     C_2   0.675296 0.277359 0.376206 0.000000
O199  O     O_2   0.687646 0.255578 0.398135 0.000000
O200  O     O_2   0.685743 0.326193 0.374566 0.000000
H1090 H     H_    0.521470 0.181847 0.225069 0.000000
H1091 H     H_    0.463455 0.211094 0.228816 0.000000
H1092 H     H_    0.517235 0.242959 0.213199 0.000000
H1093 H     H_    0.521335 0.274394 0.257983 0.000000
H1094 H     H_    0.486482 0.257047 0.301312 0.000000
H1095 H     H_    0.444954 0.222458 0.277218 0.000000
H1096 H     H_    0.492776 0.192676 0.297700 0.000000
H1097 H     H_    0.605004 0.135489 0.331037 0.000000
H1098 H     H_    0.647913 0.180245 0.372973 0.000000
H1099 H     H_    0.643630 0.314596 0.324864 0.000000
H1100 H     H_    0.702892 0.343799 0.390700 0.000000
C1101 C     C_3   0.707420 0.172926 0.287697 0.000000
C1102 C     C_3   0.740256 0.150698 0.264681 0.000000
C1103 C     C_3   0.782902 0.129102 0.280761 0.000000
C1104 C     C_R   0.714368 0.113815 0.243587 0.000000
N201  N     N_R   0.665863 0.093243 0.245610 0.000000
C1105 C     C_R   0.669047 0.056083 0.224711 0.000000
C1106 C     C_R   0.634201 0.021632 0.216029 0.000000
C1107 C     C_R   0.647867 0.986674 0.194348 0.000000
C1108 C     C_R   0.695890 0.984250 0.183367 0.000000
C1109 C     C_R   0.727705 0.022047 0.190532 0.000000
C1110 C     C_R   0.713393 0.056447 0.210815 0.000000
N202  N     N_R   0.741663 0.093958 0.220052 0.000000
C1111 C     C_2   0.715043 0.944048 0.163825 0.000000
O201  O     O_2   0.698632 0.935693 0.138997 0.000000
O202  O     O_2   0.752706 0.917283 0.173151 0.000000
H1101 H     H_    0.705977 0.150091 0.307556 0.000000
H1102 H     H_    0.721200 0.210612 0.294602 0.000000
H1103 H     H_    0.672080 0.174393 0.276654 0.000000
H1104 H     H_    0.756615 0.179823 0.251232 0.000000
H1105 H     H_    0.815322 0.129059 0.266020 0.000000
H1106 H     H_    0.792340 0.153016 0.300673 0.000000
H1107 H     H_    0.773541 0.091353 0.287816 0.000000
H1108 H     H_    0.598330 0.020278 0.226262 0.000000
H1109 H     H_    0.622008 0.958346 0.188647 0.000000
H1110 H     H_    0.763231 0.024915 0.180142 0.000000
H1111 H     H_    0.765404 0.890782 0.160473 0.000000
C1112 C     C_3   0.657015 0.314609 0.142536 0.000000
C1113 C     C_3   0.683121 0.363350 0.141294 0.000000
C1114 C     C_3   0.684847 0.393116 0.169743 0.000000
C1115 C     C_R   0.731426 0.352159 0.130502 0.000000
N203  N     N_R   0.772432 0.341829 0.148022 0.000000
C1116 C     C_R   0.805628 0.333227 0.126558 0.000000
C1117 C     C_R   0.851583 0.315714 0.130645 0.000000
C1118 C     C_R   0.877724 0.301501 0.105593 0.000000
C1119 C     C_R   0.862645 0.315463 0.077790 0.000000
C1120 C     C_R   0.817532 0.337284 0.074564 0.000000
C1121 C     C_R   0.786864 0.340235 0.098764 0.000000
N204  N     N_R   0.737638 0.348299 0.099972 0.000000
C1122 C     C_2   0.894112 0.305742 0.051825 0.000000
O203  O     O_2   0.923786 0.272659 0.052031 0.000000
O204  O     O_2   0.891824 0.334462 0.028138 0.000000
H1112 H     H_    0.679862 0.288524 0.153835 0.000000
H1113 H     H_    0.619523 0.317695 0.151609 0.000000
H1114 H     H_    0.655889 0.300237 0.119522 0.000000
H1115 H     H_    0.665180 0.385704 0.124656 0.000000
H1116 H     H_    0.722428 0.400552 0.177860 0.000000
H1117 H     H_    0.666100 0.428055 0.166180 0.000000
H1118 H     H_    0.664250 0.372808 0.185456 0.000000
H1119 H     H_    0.865380 0.310036 0.152721 0.000000
H1120 H     H_    0.911252 0.281653 0.108008 0.000000
H1121 H     H_    0.806749 0.350203 0.053718 0.000000
H1122 H     H_    0.913885 0.329018 0.011515 0.000000
C1123 C     C_3   0.657373 0.134548 0.126571 0.000000
C1124 C     C_3   0.692008 0.099617 0.140387 0.000000
C1125 C     C_3   0.679510 0.048754 0.131433 0.000000
C1126 C     C_R   0.740106 0.103104 0.127189 0.000000
N205  N     N_R   0.744698 0.104043 0.096251 0.000000
C1127 C     C_R   0.794516 0.104179 0.093970 0.000000
C1128 C     C_R   0.823852 0.116517 0.070289 0.000000
C1129 C     C_R   0.873771 0.111597 0.072102 0.000000
C1130 C     C_R   0.893916 0.092231 0.097096 0.000000
C1131 C     C_R   0.864864 0.084464 0.121870 0.000000
C1132 C     C_R   0.816054 0.095183 0.120694 0.000000
N206  N     N_R   0.783383 0.097791 0.143427 0.000000
C1133 C     C_2   0.945530 0.079124 0.096761 0.000000
O205  O     O_2   0.973715 0.097038 0.078771 0.000000
O206  O     O_2   0.961621 0.045549 0.115406 0.000000
H1123 H     H_    0.621725 0.116635 0.126782 0.000000
H1124 H     H_    0.653578 0.168646 0.139977 0.000000
H1125 H     H_    0.666532 0.143811 0.103626 0.000000
H1126 H     H_    0.690828 0.103315 0.164663 0.000000
H1127 H     H_    0.711428 0.026968 0.135876 0.000000
H1128 H     H_    0.646354 0.036238 0.142912 0.000000
H1129 H     H_    0.680172 0.047764 0.107495 0.000000
H1130 H     H_    0.808771 0.127369 0.049792 0.000000
H1131 H     H_    0.896082 0.118818 0.052749 0.000000
H1132 H     H_    0.879096 0.067394 0.140765 0.000000
H1133 H     H_    0.995862 0.037482 0.115128 0.000000
C1134 C     C_3   0.727932 0.226810 0.106159 0.000000
C1135 C     C_3   0.734633 0.237373 0.074743 0.000000
C1136 C     C_3   0.780737 0.220554 0.059145 0.000000
C1137 C     C_R   0.690489 0.224364 0.059442 0.000000
N207  N     N_R   0.685101 0.178949 0.044351 0.000000
C1138 C     C_R   0.670817 0.193633 0.017460 0.000000
C1139 C     C_R   0.670576 0.166188 0.991262 0.000000
C1140 C     C_R   0.654290 0.188042 0.966042 0.000000
C1141 C     C_R   0.638561 0.236778 0.967362 0.000000
C1142 C     C_R   0.642203 0.265257 0.993956 0.000000
C1143 C     C_R   0.660001 0.243107 0.018594 0.000000
N208  N     N_R   0.672028 0.264157 0.045587 0.000000
C1144 C     C_2   0.619163 0.257435 0.940145 0.000000
O207  O     O_2   0.624285 0.235333 0.916170 0.000000
O208  O     O_2   0.594209 0.299755 0.941464 0.000000
H1134 H     H_    0.741361 0.190491 0.110102 0.000000
H1135 H     H_    0.747467 0.255202 0.119379 0.000000
H1136 H     H_    0.688431 0.227923 0.111089 0.000000
H1137 H     H_    0.735175 0.276552 0.071703 0.000000
H1138 H     H_    0.795865 0.251691 0.046649 0.000000
H1139 H     H_    0.808984 0.210980 0.075281 0.000000
H1140 H     H_    0.772576 0.191624 0.041873 0.000000
H1141 H     H_    0.685020 0.129480 0.989975 0.000000
H1142 H     H_    0.653440 0.166240 0.945329 0.000000
H1143 H     H_    0.631288 0.303190 0.995710 0.000000
H1144 H     H_    0.581333 0.312874 0.923455 0.000000
C1145 C     C_3   0.123318 0.977270 0.728455 0.000000
C1146 C     C_3   0.167210 0.009778 0.721359 0.000000
C1147 C     C_3   0.186205 0.994681 0.691628 0.000000
C1148 C     C_R   0.153973 0.062788 0.723433 0.000000
N209  N     N_R   0.159864 0.085396 0.751864 0.000000
C1149 C     C_R   0.113417 0.098377 0.757785 0.000000
C1150 C     C_R   0.095596 0.119222 0.783732 0.000000
C1151 C     C_R   0.045704 0.127136 0.785560 0.000000
C1152 C     C_R   0.014309 0.109315 0.762976 0.000000
C1153 C     C_R   0.033631 0.088768 0.736808 0.000000
C1154 C     C_R   0.083510 0.087990 0.733854 0.000000
N210  N     N_R   0.109709 0.073307 0.709655 0.000000
C1155 C     C_2   0.960993 0.114447 0.766185 0.000000
O209  O     O_2   0.944034 0.136333 0.787988 0.000000
O210  O     O_2   0.930541 0.095819 0.744804 0.000000
H1145 H     H_    0.107565 0.988958 0.750357 0.000000
H1146 H     H_    0.096051 0.980126 0.710688 0.000000
H1147 H     H_    0.133953 0.937993 0.729351 0.000000
H1148 H     H_    0.194304 0.001740 0.737780 0.000000
H1149 H     H_    0.180004 0.023388 0.675285 0.000000
H1150 H     H_    0.224738 0.986267 0.693838 0.000000
H1151 H     H_    0.168314 0.959395 0.685592 0.000000
H1152 H     H_    0.119679 0.130292 0.801771 0.000000
H1153 H     H_    0.031348 0.146150 0.805168 0.000000
H1154 H     H_    0.010556 0.074654 0.718951 0.000000
H1155 H     H_    0.895505 0.099410 0.746923 0.000000
C1156 C     C_3   0.283503 0.216065 0.764873 0.000000
C1157 C     C_3   0.230141 0.217588 0.758016 0.000000
C1158 C     C_3   0.214991 0.177035 0.737138 0.000000
C1159 C     C_R   0.204217 0.216520 0.785266 0.000000
N211  N     N_R   0.207238 0.175960 0.802652 0.000000
C1160 C     C_R   0.208218 0.198326 0.830088 0.000000
C1161 C     C_R   0.226522 0.180083 0.855716 0.000000
C1162 C     C_R   0.223709 0.208986 0.881606 0.000000
C1163 C     C_R   0.202469 0.255235 0.881503 0.000000
C1164 C     C_R   0.190846 0.275890 0.854558 0.000000
C1165 C     C_R   0.198586 0.247831 0.828802 0.000000
N212  N     N_R   0.198991 0.261606 0.800160 0.000000
C1166 C     C_2   0.192178 0.281034 0.910123 0.000000
O211  O     O_2   0.212409 0.268629 0.932733 0.000000
O212  O     O_2   0.158207 0.316286 0.911977 0.000000
H1156 H     H_    0.296594 0.180051 0.758324 0.000000
H1157 H     H_    0.303494 0.243482 0.751812 0.000000
H1158 H     H_    0.289957 0.220536 0.789020 0.000000
H1159 H     H_    0.219893 0.252464 0.750084 0.000000
H1160 H     H_    0.175341 0.173475 0.738223 0.000000
H1161 H     H_    0.228090 0.187426 0.715175 0.000000
H1162 H     H_    0.230372 0.142202 0.743580 0.000000
H1163 H     H_    0.240669 0.143371 0.856275 0.000000
H1164 H     H_    0.234966 0.193421 0.902233 0.000000
H1165 H     H_    0.174291 0.311652 0.853780 0.000000
H1166 H     H_    0.150995 0.332476 0.931011 0.000000
C1167 C     C_3   0.562121 0.245486 0.114041 0.000000
C1168 C     C_3   0.573947 0.278079 0.088938 0.000000
C1169 C     C_3   0.543013 0.272040 0.060857 0.000000
C1170 C     C_R   0.573474 0.329738 0.098609 0.000000
N213  N     N_R   0.529123 0.350993 0.106750 0.000000
C1171 C     C_R   0.530790 0.391311 0.090731 0.000000
C1172 C     C_R   0.490816 0.411807 0.078138 0.000000
C1173 C     C_R   0.498886 0.450269 0.059867 0.000000
C1174 C     C_R   0.546336 0.467095 0.055463 0.000000
C1175 C     C_R   0.586490 0.441720 0.065328 0.000000
C1176 C     C_R   0.576911 0.399551 0.079790 0.000000
N214  N     N_R   0.605759 0.360129 0.083576 0.000000
C1177 C     C_2   0.554470 0.511729 0.039989 0.000000
O213  O     O_2   0.525109 0.525650 0.021943 0.000000
O214  O     O_2   0.594465 0.538701 0.046857 0.000000
H1167 H     H_    0.546223 0.266841 0.133141 0.000000
H1168 H     H_    0.538891 0.213793 0.106969 0.000000
H1169 H     H_    0.597951 0.231174 0.120475 0.000000
H1170 H     H_    0.611387 0.269537 0.082704 0.000000
H1171 H     H_    0.567755 0.269523 0.041350 0.000000
H1172 H     H_    0.519209 0.238767 0.061002 0.000000
H1173 H     H_    0.520555 0.304781 0.057429 0.000000
H1174 H     H_    0.454380 0.397354 0.081084 0.000000
H1175 H     H_    0.468016 0.468401 0.050423 0.000000
H1176 H     H_    0.623545 0.452879 0.060192 0.000000
H1177 H     H_    0.598367 0.570812 0.039109 0.000000
C1178 C     C_3   0.060845 0.532610 0.928460 0.000000
C1179 C     C_3   0.105886 0.515896 0.944450 0.000000
C1180 C     C_3   0.113137 0.460714 0.939319 0.000000
C1181 C     C_R   0.151487 0.541809 0.934558 0.000000
N215  N     N_R   0.171883 0.530327 0.906791 0.000000
C1182 C     C_R   0.220064 0.535133 0.912710 0.000000
C1183 C     C_R   0.257154 0.528792 0.892960 0.000000
C1184 C     C_R   0.304634 0.530677 0.903611 0.000000
C1185 C     C_R   0.313574 0.539538 0.933895 0.000000
C1186 C     C_R   0.274830 0.549848 0.953260 0.000000
C1187 C     C_R   0.228435 0.549741 0.941522 0.000000
N216  N     N_R   0.185821 0.558263 0.955719 0.000000
C1188 C     C_2   0.363944 0.537114 0.945074 0.000000
O215  O     O_2   0.398315 0.534711 0.927674 0.000000
O216  O     O_2   0.372473 0.535716 0.974474 0.000000
H1178 H     H_    0.041704 0.500317 0.917685 0.000000
H1179 H     H_    0.034838 0.548463 0.944866 0.000000
H1180 H     H_    0.071223 0.560882 0.912228 0.000000
H1181 H     H_    0.100941 0.522452 0.968657 0.000000
H1182 H     H_    0.080398 0.439502 0.946411 0.000000
H1183 H     H_    0.120734 0.451782 0.915613 0.000000
H1184 H     H_    0.145104 0.449580 0.952481 0.000000
H1185 H     H_    0.248115 0.519264 0.870255 0.000000
H1186 H     H_    0.334451 0.523379 0.888250 0.000000
H1187 H     H_    0.280196 0.555967 0.976884 0.000000
H1188 H     H_    0.405703 0.532946 0.981481 0.000000
C1189 C     C_3   0.288731 0.648570 0.068904 0.000000
C1190 C     C_3   0.284140 0.615164 0.042572 0.000000
C1191 C     C_3   0.332592 0.604125 0.028522 0.000000
C1192 C     C_R   0.257782 0.570062 0.050196 0.000000
N217  N     N_R   0.267780 0.538504 0.073805 0.000000
C1193 C     C_R   0.234706 0.501710 0.067265 0.000000
C1194 C     C_R   0.221501 0.463006 0.084694 0.000000
C1195 C     C_R   0.190144 0.426501 0.072583 0.000000
C1196 C     C_R   0.173635 0.428786 0.043313 0.000000
C1197 C     C_R   0.185014 0.470053 0.026896 0.000000
C1198 C     C_R   0.211305 0.508475 0.040764 0.000000
N218  N     N_R   0.220729 0.554444 0.030882 0.000000
C1199 C     C_2   0.142715 0.388377 0.030162 0.000000
O217  O     O_2   0.132301 0.352176 0.044508 0.000000
O218  O     O_2   0.125583 0.391125 0.002207 0.000000
H1189 H     H_    0.318224 0.635829 0.082824 0.000000
H1190 H     H_    0.296280 0.685524 0.060352 0.000000
H1191 H     H_    0.253811 0.647792 0.081364 0.000000
H1192 H     H_    0.261978 0.633229 0.026087 0.000000
H1193 H     H_    0.331574 0.608264 0.004410 0.000000
H1194 H     H_    0.359924 0.631482 0.037456 0.000000
H1195 H     H_    0.340433 0.564851 0.031882 0.000000
H1196 H     H_    0.236546 0.460034 0.106720 0.000000
H1197 H     H_    0.180484 0.395100 0.085785 0.000000
H1198 H     H_    0.170971 0.473822 0.004648 0.000000
H1199 H     H_    0.105176 0.364548 0.993605 0.000000
C1200 C     C_3   0.890449 0.564869 0.880779 0.000000
C1201 C     C_3   0.836655 0.564918 0.872393 0.000000
C1202 C     C_3   0.811669 0.602346 0.891080 0.000000
C1203 C     C_R   0.827834 0.573103 0.840292 0.000000
N219  N     N_R   0.862316 0.551552 0.822013 0.000000
C1204 C     C_R   0.835553 0.515203 0.807954 0.000000
C1205 C     C_R   0.851961 0.469707 0.798828 0.000000
C1206 C     C_R   0.819560 0.431524 0.791300 0.000000
C1207 C     C_R   0.769951 0.438194 0.794868 0.000000
C1208 C     C_R   0.753681 0.483545 0.805821 0.000000
C1209 C     C_R   0.787073 0.521082 0.813317 0.000000
N220  N     N_R   0.779949 0.561981 0.831061 0.000000
C1210 C     C_2   0.735557 0.395876 0.790087 0.000000
O219  O     O_2   0.749394 0.357626 0.777758 0.000000
O220  O     O_2   0.689114 0.398368 0.800269 0.000000
H1200 H     H_    0.914476 0.577273 0.862750 0.000000
H1201 H     H_    0.898070 0.588299 0.900914 0.000000
H1202 H     H_    0.899543 0.527148 0.886630 0.000000
H1203 H     H_    0.820582 0.528075 0.877495 0.000000
H1204 H     H_    0.808134 0.588558 0.913593 0.000000
H1205 H     H_    0.834033 0.635967 0.889922 0.000000
H1206 H     H_    0.775691 0.608500 0.881793 0.000000
H1207 H     H_    0.888085 0.460521 0.803514 0.000000
H1208 H     H_    0.833700 0.395355 0.785408 0.000000
H1209 H     H_    0.715549 0.488712 0.808275 0.000000
H1210 H     H_    0.666847 0.370176 0.797643 0.000000
C1211 C     C_3   0.574392 0.164230 0.046028 0.000000
C1212 C     C_3   0.539802 0.132709 0.062693 0.000000
C1213 C     C_3   0.512039 0.096800 0.041577 0.000000
C1214 C     C_R   0.566432 0.105021 0.084385 0.000000
N221  N     N_R   0.609805 0.082249 0.075396 0.000000
C1215 C     C_R   0.600833 0.036434 0.084847 0.000000
C1216 C     C_R   0.627087 0.994760 0.078047 0.000000
C1217 C     C_R   0.621375 0.955559 0.096164 0.000000
C1218 C     C_R   0.590461 0.958896 0.120628 0.000000
C1219 C     C_R   0.564291 0.001266 0.126628 0.000000
C1220 C     C_R   0.564427 0.036875 0.105740 0.000000
N222  N     N_R   0.538838 0.079362 0.105282 0.000000
C1221 C     C_2   0.587607 0.918486 0.140995 0.000000
O221  O     O_2   0.615793 0.884557 0.138210 0.000000
O222  O     O_2   0.556558 0.920257 0.164180 0.000000
H1211 H     H_    0.602663 0.141147 0.037260 0.000000
H1212 H     H_    0.555793 0.182447 0.027627 0.000000
H1213 H     H_    0.592570 0.190285 0.062043 0.000000
H1214 H     H_    0.515571 0.156352 0.074985 0.000000
H1215 H     H_    0.484265 0.075286 0.054011 0.000000
H1216 H     H_    0.493464 0.117515 0.024236 0.000000
H1217 H     H_    0.537500 0.070173 0.030952 0.000000
H1218 H     H_    0.655325 0.993988 0.061496 0.000000
H1219 H     H_    0.644318 0.923963 0.092417 0.000000
H1220 H     H_    0.551356 0.008769 0.148824 0.000000
H1221 H     H_    0.560805 0.898904 0.180561 0.000000
C1222 C     C_3   0.417451 0.255410 0.185369 0.000000
C1223 C     C_3   0.420669 0.208874 0.168459 0.000000
C1224 C     C_3   0.368517 0.195159 0.159509 0.000000
C1225 C     C_R   0.451689 0.216390 0.141945 0.000000
N223  N     N_R   0.450478 0.261696 0.127691 0.000000
C1226 C     C_R   0.442269 0.245670 0.099271 0.000000
C1227 C     C_R   0.432476 0.273872 0.075315 0.000000
C1228 C     C_R   0.418564 0.249978 0.048747 0.000000
C1229 C     C_R   0.415410 0.198466 0.046346 0.000000
C1230 C     C_R   0.428206 0.170706 0.070312 0.000000
C1231 C     C_R   0.442567 0.195087 0.096541 0.000000
N224  N     N_R   0.454063 0.175109 0.122817 0.000000
C1232 C     C_2   0.398305 0.173356 0.018557 0.000000
O223  O     O_2   0.388867 0.197402 0.996977 0.000000
O224  O     O_2   0.392303 0.123654 0.016872 0.000000
H1222 H     H_    0.394313 0.279892 0.172447 0.000000
H1223 H     H_    0.400818 0.249166 0.207498 0.000000
H1224 H     H_    0.455631 0.268297 0.186978 0.000000
H1225 H     H_    0.436915 0.181133 0.182223 0.000000
H1226 H     H_    0.364617 0.154757 0.156197 0.000000
H1227 H     H_    0.342938 0.207377 0.177397 0.000000
H1228 H     H_    0.358469 0.213911 0.138967 0.000000
H1229 H     H_    0.435187 0.313696 0.077040 0.000000
H1230 H     H_    0.409634 0.272077 0.030059 0.000000
H1231 H     H_    0.426019 0.130790 0.068937 0.000000
H1232 H     H_    0.380814 0.107213 0.998617 0.000000

loop_
_geom_bond_atom_site_label_1
_geom_bond_atom_site_label_2
_geom_bond_distance
_geom_bond_site_symmetry_2
_ccdc_geom_bond_type
Zn1   N12   2.245 .      S
Zn1   N123  2.207 .      S
Zn1   N134  2.236 .      S
Zn1   N188  2.174 .      S
Zn2   N2    2.129 .      S
Zn2   N9    2.022 .      S
Zn2   N30   2.089 .      S
Zn2   N49   2.132 .      S
Zn3   N4    2.121 .      S
Zn3   N6    2.122 .      S
Zn3   N71   2.186 .      S
Zn3   N212  2.162 .      S
Zn4   N5    2.123 .      S
Zn4   N7    2.138 .      S
Zn4   N138  2.172 .      S
Zn4   N215  2.114 .      S
Zn5   N8    2.120 .      S
Zn5   N10   2.052 .      S
Zn5   N11   2.232 .      S
Zn5   N149  2.148 .      S
Zn6   N13   2.192 .      S
Zn6   N15   2.273 .      S
Zn6   N28   2.230 .      S
Zn6   N62   2.250 .      S
Zn7   N18   2.195 .      S
Zn7   N19   2.211 .      S
Zn7   N33   2.227 .      S
Zn7   N117  2.201 .      S
Zn8   N17   2.194 .      S
Zn8   N21   2.206 .      S
Zn8   N38   2.253 .      S
Zn8   N155  2.231 .      S
Zn9   N23   2.216 .      S
Zn9   N43   2.256 .      S
Zn9   N96   2.170 .      S
Zn9   N111  2.247 .      S
Zn10  N20   2.173 .      S
Zn10  N26   2.228 .      S
Zn10  N98   2.121 .      S
Zn10  N113  2.205 .      S
Zn11  N27   2.274 .      S
Zn11  N29   2.047 .      S
Zn11  N32   2.191 .      S
Zn11  N181  2.301 .      S
Zn12  N34   2.216 .      S
Zn12  N36   2.193 .      S
Zn12  N86   2.077 .      S
Zn12  N191  2.166 .      S
Zn13  N37   2.209 .      S
Zn13  N40   2.245 .      S
Zn13  N83   2.096 .      S
Zn13  N217  2.243 .      S
Zn14  N31   2.288 .      S
Zn14  N42   2.137 .      S
Zn14  N44   2.284 .      S
Zn14  N129  2.160 .      S
Zn15  N41   2.272 .      S
Zn15  N45   2.195 .      S
Zn15  N47   2.283 .      S
Zn15  N56   2.268 .      S
Zn16  N46   2.231 .      S
Zn16  N50   2.112 .      S
Zn16  N52   2.152 .      S
Zn16  N139  2.128 .      S
Zn17  N53   2.252 .      S
Zn17  N64   2.176 .      S
Zn17  N70   2.244 .      S
Zn17  N141  2.257 .      S
Zn18  N24   2.176 .      S
Zn18  N55   2.274 .      S
Zn18  N57   2.113 .      S
Zn18  N108  2.171 .      S
Zn19  N22   2.258 .      S
Zn19  N25   2.154 .      S
Zn19  N60   2.219 .      S
Zn19  N110  2.177 .      S
Zn20  N61   2.218 .      S
Zn20  N63   2.219 .      S
Zn20  N65   2.269 .      S
Zn20  N100  2.171 .      S
Zn21  N144  2.153 .      S
Zn21  N158  2.165 .      S
Zn21  N194  2.144 .      S
Zn21  N203  2.246 .      S
Zn22  N67   2.279 .      S
Zn22  N69   2.199 .      S
Zn22  N72   2.229 .      S
Zn22  N146  2.104 .      S
Zn23  N74   2.177 .      S
Zn23  N75   2.136 .      S
Zn23  N77   2.075 .      S
Zn23  N80   2.173 .      S
Zn24  N82   2.027 .      S
Zn24  N84   2.101 .      S
Zn24  N85   2.229 .      S
Zn24  N88   2.147 .      S
Zn25  N78   2.210 .      S
Zn25  N87   2.233 .      S
Zn25  N90   2.034 .      S
Zn25  N92   2.181 .      S
Zn26  N94   2.194 .      S
Zn26  N95   2.205 .      S
Zn26  N97   2.238 .      S
Zn26  N99   2.208 .      S
Zn27  N79   2.191 .      S
Zn27  N81   2.172 .      S
Zn27  N101  2.145 .      S
Zn27  N104  2.273 .      S
Zn28  N89   2.188 .      S
Zn28  N105  2.195 .      S
Zn28  N107  2.224 .      S
Zn28  N109  2.154 .      S
Zn29  N91   2.136 .      S
Zn29  N112  2.123 .      S
Zn29  N114  2.133 .      S
Zn29  N115  2.240 .      S
Zn30  N73   2.130 .      S
Zn30  N118  2.323 1_655  S
Zn30  N120  2.335 .      S
Zn30  N121  2.190 .      S
Zn31  N124  2.199 .      S
Zn31  N125  2.140 .      S
Zn31  N127  2.078 .      S
Zn31  N130  2.102 .      S
Zn32  N54   2.316 .      S
Zn32  N58   2.161 .      S
Zn32  N59   2.308 .      S
Zn32  N131  2.201 .      S
Zn33  N48   2.292 .      S
Zn33  N68   2.278 .      S
Zn33  N133  2.208 .      S
Zn33  N135  2.231 .      S
Zn34  N136  2.213 .      S
Zn34  N137  2.234 .      S
Zn34  N180  2.163 .      S
Zn34  N219  2.108 .      S
Zn35  N3    2.175 .      S
Zn35  N14   2.185 .      S
Zn35  N140  2.202 .      S
Zn35  N142  2.198 .      S
Zn36  N119  2.195 .      S
Zn36  N143  2.161 .      S
Zn36  N202  2.130 .      S
Zn36  N206  2.287 .      S
Zn37  N66   2.281 .      S
Zn37  N126  2.208 .      S
Zn37  N145  2.147 .      S
Zn37  N210  2.238 .      S
Zn38  N148  2.175 .      S
Zn38  N150  2.064 .      S
Zn38  N152  2.117 .      S
Zn38  N153  2.176 .      S
Zn39  N76   2.178 .      S
Zn39  N156  2.224 1_655  S
Zn39  N157  2.192 .      S
Zn39  N160  2.133 .      S
Zn40  N102  2.274 1_556  S
Zn40  N161  2.182 1_556  S
Zn40  N164  2.270 .      S
Zn40  N165  2.264 .      S
Zn41  N103  2.094 1_556  S
Zn41  N168  2.158 1_556  S
Zn41  N169  2.142 1_556  S
Zn41  N172  2.197 .      S
Zn42  N122  2.211 .      S
Zn42  N167  2.158 .      S
Zn42  N173  2.112 1_655  S
Zn42  N175  2.166 .      S
Zn43  N128  2.099 .      S
Zn43  N151  2.180 .      S
Zn43  N177  2.084 .      S
Zn43  N179  2.229 .      S
Zn44  N171  2.174 .      S
Zn44  N178  2.128 .      S
Zn44  N182  2.284 .      S
Zn44  N183  2.222 .      S
Zn45  N159  2.221 .      S
Zn45  N166  2.184 .      S
Zn45  N176  2.231 .      S
Zn45  N185  2.121 1_655  S
Zn46  N1    2.239 .      S
Zn46  N93   2.231 .      S
Zn46  N132  2.241 .      S
Zn46  N187  2.177 .      S
Zn47  N147  2.218 1_554  S
Zn47  N174  2.117 .      S
Zn47  N190  2.253 1_554  S
Zn47  N192  2.138 .      S
Zn48  N106  2.116 .      S
Zn48  N193  2.111 .      S
Zn48  N196  2.218 .      S
Zn48  N200  2.201 .      S
Zn49  N116  2.330 .      S
Zn49  N197  2.248 .      S
Zn49  N199  2.235 .      S
Zn49  N201  2.276 .      S
Zn50  N162  2.135 .      S
Zn50  N204  2.289 .      S
Zn50  N208  2.191 .      S
Zn50  N214  2.196 .      S
Zn51  N170  2.154 .      S
Zn51  N205  2.286 .      S
Zn51  N207  2.169 .      S
Zn51  N221  2.231 .      S
Zn52  N16   2.202 .      S
Zn52  N154  2.145 .      S
Zn52  N209  2.204 .      S
Zn52  N211  2.138 .      S
Zn53  N39   2.257 .      S
Zn53  N195  2.181 .      S
Zn53  N213  2.145 .      S
Zn53  N223  2.195 .      S
Zn54  N186  2.059 1_556  S
Zn54  N189  2.222 .      S
Zn54  N216  2.087 .      S
Zn54  N218  2.223 1_556  S
Zn55  N51   2.214 .      S
Zn55  N163  2.215 .      S
Zn55  N184  2.310 .      S
Zn55  N220  2.152 .      S
Zn56  N35   2.273 .      S
Zn56  N198  2.229 .      S
Zn56  N222  2.235 .      S
Zn56  N224  2.183 .      S
C1    C2    1.488 .      S
C1    H1    1.093 .      S
C1    H2    1.102 .      S
C1    H3    1.097 .      S
C2    C3    1.459 .      S
C2    C4    1.491 .      S
C2    H4    1.105 .      S
C3    H5    1.089 .      S
C3    H6    1.106 .      S
C3    H7    1.082 .      S
C6    H8    1.051 .      S
C7    H9    1.075 .      S
C8    C11   1.452 .      S
C9    H10   1.056 .      S
C11   O2    1.346 .      S
O2    H11   0.964 .      S
C12   C13   1.515 .      S
C12   H12   1.101 .      S
C12   H13   1.107 .      S
C12   H14   1.106 .      S
C13   C14   1.502 .      S
C13   C15   1.491 .      S
C13   H15   1.107 .      S
C14   H16   1.100 .      S
C14   H17   1.100 .      S
C14   H18   1.097 .      S
C17   H19   1.059 .      S
C18   H20   1.081 .      S
C19   C22   1.466 .      S
C20   H21   1.073 .      S
C22   O4    1.345 .      S
O4    H22   0.966 .      S
C23   C24   1.515 .      S
C23   H23   1.095 .      S
C23   H24   1.109 .      S
C23   H25   1.107 .      S
C24   C25   1.511 .      S
C24   C26   1.490 .      S
C24   H26   1.093 .      S
C25   H27   1.106 .      S
C25   H28   1.108 .      S
C25   H29   1.094 .      S
C28   H30   1.060 .      S
C29   H31   1.073 .      S
C30   C33   1.430 .      S
C31   H32   1.053 .      S
C33   O6    1.336 .      S
O6    H33   0.965 .      S
C34   C35   1.515 .      S
C34   H34   1.101 .      S
C34   H35   1.107 .      S
C34   H36   1.103 .      S
C35   C36   1.508 .      S
C35   C37   1.520 .      S
C35   H37   1.102 .      S
C36   H38   1.106 .      S
C36   H39   1.097 .      S
C36   H40   1.099 .      S
C39   H41   1.057 .      S
C40   H42   1.073 .      S
C41   C44   1.466 .      S
C42   H43   1.061 .      S
C44   O8    1.339 .      S
O8    H44   0.966 .      S
C45   C46   1.481 .      S
C45   H45   1.100 .      S
C45   H46   1.088 .      S
C45   H47   1.097 .      S
C46   C47   1.510 .      S
C46   C48   1.422 .      S
C46   H48   1.059 .      S
C47   H49   1.090 .      S
C47   H50   1.102 .      S
C47   H51   1.101 .      S
C50   H52   1.064 .      S
C51   H53   1.080 .      S
C52   C55   1.464 .      S
C53   H54   1.056 .      S
C55   O10   1.342 .      S
O10   H55   0.964 .      S
C56   C57   1.517 .      S
C56   H56   1.097 .      S
C56   H57   1.097 .      S
C56   H58   1.097 .      S
C57   C58   1.475 .      S
C57   C59   1.470 .      S
C57   H59   1.059 .      S
C58   H60   1.098 .      S
C58   H61   1.102 .      S
C58   H62   1.065 .      S
C61   H63   1.068 .      S
C62   H64   1.077 .      S
C63   C66   1.422 .      S
C64   H65   1.063 .      S
C66   O12   1.327 .      S
O12   H66   0.953 .      S
C67   C68   1.476 .      S
C67   H67   1.102 .      S
C67   H68   1.102 .      S
C67   H69   1.073 .      S
C68   C69   1.465 .      S
C68   C70   1.417 .      S
C68   H70   1.098 .      S
C69   H71   1.087 .      S
C69   H72   1.099 .      S
C69   H73   1.095 .      S
C72   H74   1.073 .      S
C73   H75   1.080 .      S
C74   C77   1.469 .      S
C75   H76   1.074 .      S
C77   O14   1.344 .      S
O14   H77   0.966 .      S
C78   C79   1.447 .      S
C78   H78   1.071 .      S
C78   H79   1.087 .      S
C78   H80   1.092 .      S
C79   C80   1.495 .      S
C79   C81   1.405 .      S
C79   H81   1.083 .      S
C80   H82   1.101 .      S
C80   H83   1.099 1_545  S
C80   H84   1.088 1_545  S
C83   H85   1.071 .      S
C84   H86   1.081 .      S
C85   C88   1.468 .      S
C86   H87   1.071 .      S
C88   O16   1.346 .      S
O16   H88   0.966 .      S
H83   C80   1.099 1_565  S
H84   C80   1.088 1_565  S
C89   C90   1.512 .      S
C89   H89   1.101 .      S
C89   H90   1.105 .      S
C89   H91   1.101 .      S
C90   C91   1.487 .      S
C90   C92   1.496 .      S
C90   H92   1.101 .      S
C91   H93   1.106 .      S
C91   H94   1.106 .      S
C91   H95   1.091 .      S
C94   H96   1.073 .      S
C95   H97   1.062 .      S
C96   C99   1.429 .      S
C97   H98   1.080 .      S
C99   O18   1.332 .      S
O18   H99   0.962 .      S
C100  C101  1.497 .      S
C100  H100  1.101 .      S
C100  H101  1.095 .      S
C100  H102  1.097 .      S
C101  C102  1.526 .      S
C101  C103  1.486 .      S
C101  H103  1.084 .      S
C102  H104  1.103 .      S
C102  H105  1.108 .      S
C102  H106  1.104 .      S
C105  H107  1.074 .      S
C106  H108  1.080 .      S
C107  C110  1.468 .      S
C108  H109  1.075 .      S
C110  O20   1.346 .      S
O20   H110  0.966 .      S
C111  C112  1.513 .      S
C111  H111  1.108 .      S
C111  H112  1.106 .      S
C111  H113  1.087 .      S
C112  C113  1.460 .      S
C112  C114  1.493 .      S
C112  H114  1.077 .      S
C113  H115  1.098 .      S
C113  H116  1.097 .      S
C113  H117  1.088 .      S
C116  H118  1.074 .      S
C117  H119  1.081 .      S
C118  C121  1.468 .      S
C119  H120  1.076 .      S
C121  O22   1.344 .      S
O22   H121  0.966 .      S
C122  C123  1.504 .      S
C122  H122  1.098 .      S
C122  H123  1.097 .      S
C122  H124  1.104 .      S
C123  C124  1.509 .      S
C123  C125  1.498 .      S
C123  H125  1.109 .      S
C124  H126  1.104 .      S
C124  H127  1.105 .      S
C124  H128  1.097 .      S
C127  H129  1.072 .      S
C128  H130  1.075 .      S
C129  C132  1.425 .      S
C130  H131  1.052 .      S
C132  O24   1.333 .      S
O24   H132  0.951 .      S
C133  C134  1.436 .      S
C133  H133  1.096 .      S
C133  H134  1.102 .      S
C133  H135  1.088 .      S
C134  C135  1.474 .      S
C134  C136  1.448 .      S
C134  H136  1.099 .      S
C135  H137  1.087 .      S
C135  H138  1.099 .      S
C135  H139  1.070 .      S
C138  H140  1.072 .      S
C139  H141  1.080 .      S
C140  C143  1.468 .      S
C141  H142  1.064 .      S
C143  O26   1.346 .      S
O26   H143  0.966 .      S
C144  C145  1.493 .      S
C144  H144  1.103 .      S
C144  H145  1.096 .      S
C144  H146  1.095 .      S
C145  C146  1.513 .      S
C145  C147  1.461 1_565  S
C145  H147  1.105 1_565  S
C146  H148  1.106 1_565  S
C146  H149  1.105 .      S
C146  H150  1.105 .      S
C147  C145  1.461 1_545  S
C149  H151  1.078 1_545  S
C150  H152  1.080 .      S
C151  C154  1.468 .      S
C152  H153  1.068 .      S
C154  O28   1.346 .      S
O28   H154  0.966 .      S
H147  C145  1.105 1_545  S
H148  C146  1.106 1_545  S
H151  C149  1.078 1_565  S
C155  C156  1.509 .      S
C155  H155  1.093 .      S
C155  H156  1.098 .      S
C155  H157  1.105 .      S
C156  C157  1.493 .      S
C156  C158  1.481 .      S
C156  H158  1.098 .      S
C157  H159  1.090 .      S
C157  H160  1.102 .      S
C157  H161  1.099 .      S
C160  H162  1.079 .      S
C161  H163  1.079 .      S
C162  C165  1.474 .      S
C163  H164  1.054 .      S
C165  O30   1.345 .      S
O30   H165  0.966 .      S
C166  C167  1.491 .      S
C166  H166  1.097 .      S
C166  H167  1.091 .      S
C166  H168  1.089 .      S
C167  C168  1.496 .      S
C167  C169  1.482 .      S
C167  H169  1.101 .      S
C168  H170  1.105 .      S
C168  H171  1.098 .      S
C168  H172  1.084 .      S
C171  H173  1.054 .      S
C172  H174  1.078 1_565  S
C173  C176  1.445 1_565  S
C174  H175  1.071 .      S
C176  C173  1.445 1_545  S
C176  O32   1.338 .      S
O32   H176  0.956 .      S
H174  C172  1.078 1_545  S
C177  C178  1.478 .      S
C177  H177  1.102 .      S
C177  H178  1.099 .      S
C177  H179  1.097 .      S
C178  C179  1.481 .      S
C178  C180  1.465 .      S
C178  H180  1.081 .      S
C179  H181  1.088 .      S
C179  H182  1.092 .      S
C179  H183  1.101 .      S
C182  H184  1.073 .      S
C183  H185  1.080 .      S
C184  C187  1.464 .      S
C185  H186  1.067 1_565  S
C187  O34   1.346 .      S
O34   H187  0.966 .      S
H186  C185  1.067 1_545  S
C188  C189  1.505 .      S
C188  H188  1.095 1_565  S
C188  H189  1.101 .      S
C188  H190  1.104 .      S
C189  C190  1.484 .      S
C189  C191  1.429 .      S
C189  H191  1.087 .      S
C190  H192  1.095 .      S
C190  H193  1.092 .      S
C190  H194  1.085 1_565  S
C193  H195  1.055 .      S
C194  H196  1.081 .      S
C195  C198  1.466 .      S
C196  H197  1.076 1_545  S
C198  O36   1.347 .      S
O36   H198  0.966 .      S
H188  C188  1.095 1_545  S
H194  C190  1.085 1_545  S
H197  C196  1.076 1_565  S
C199  C200  1.481 .      S
C199  H199  1.092 .      S
C199  H200  1.094 .      S
C199  H201  1.105 .      S
C200  C201  1.503 .      S
C200  C202  1.466 .      S
C200  H202  1.086 .      S
C201  H203  1.103 .      S
C201  H204  1.105 .      S
C201  H205  1.104 .      S
C204  H206  1.065 .      S
C205  H207  1.080 .      S
C206  C209  1.463 .      S
C207  H208  1.075 .      S
C209  O38   1.346 .      S
O38   H209  0.966 .      S
C210  C211  1.501 .      S
C210  H210  1.085 .      S
C210  H211  1.104 .      S
C210  H212  1.107 .      S
C211  C212  1.510 .      S
C211  C213  1.470 .      S
C211  H213  1.073 .      S
C212  H214  1.109 .      S
C212  H215  1.105 .      S
C212  H216  1.081 .      S
C215  H217  1.073 .      S
C216  H218  1.081 .      S
C217  C220  1.467 .      S
C218  H219  1.074 .      S
C220  O40   1.346 .      S
O40   H220  0.966 .      S
C221  C222  1.491 .      S
C221  H221  1.083 .      S
C221  H222  1.085 .      S
C221  H223  1.103 .      S
C222  C223  1.508 .      S
C222  C224  1.468 .      S
C222  H224  1.103 .      S
C223  H225  1.107 .      S
C223  H226  1.098 .      S
C223  H227  1.105 .      S
C226  H228  1.077 .      S
C227  H229  1.066 .      S
C228  C231  1.438 .      S
C229  H230  1.071 .      S
C231  O42   1.346 .      S
O42   H231  0.962 .      S
C232  C233  1.497 .      S
C232  H232  1.095 .      S
C232  H233  1.105 .      S
C232  H234  1.090 .      S
C233  C234  1.515 .      S
C233  C235  1.502 .      S
C233  H235  1.088 .      S
C234  H236  1.095 .      S
C234  H237  1.100 .      S
C234  H238  1.107 .      S
C237  H239  1.079 .      S
C238  H240  1.080 .      S
C239  C242  1.469 1_565  S
C240  H241  1.074 .      S
C242  C239  1.469 1_545  S
C242  O44   1.347 .      S
O44   H242  0.966 .      S
C243  C244  1.499 .      S
C243  H243  1.088 .      S
C243  H244  1.098 .      S
C243  H245  1.100 .      S
C244  C245  1.493 .      S
C244  C246  1.472 .      S
C244  H246  1.074 .      S
C245  H247  1.108 .      S
C245  H248  1.077 .      S
C245  H249  1.082 .      S
C248  H250  1.071 .      S
C249  H251  1.080 .      S
C250  C253  1.459 .      S
C251  H252  1.078 .      S
C253  O46   1.340 .      S
O46   H253  0.964 .      S
C254  C255  1.493 .      S
C254  H254  1.092 .      S
C254  H255  1.102 .      S
C254  H256  1.097 .      S
C255  C256  1.519 .      S
C255  C257  1.486 .      S
C255  H257  1.105 .      S
C256  H258  1.108 .      S
C256  H259  1.108 .      S
C256  H260  1.102 .      S
C259  H261  1.074 .      S
C260  H262  1.080 .      S
C261  C264  1.471 .      S
C262  H263  1.066 .      S
C264  O48   1.344 .      S
O48   H264  0.966 .      S
C265  C266  1.506 .      S
C265  H265  1.107 .      S
C265  H266  1.105 .      S
C265  H267  1.093 .      S
C266  C267  1.512 .      S
C266  C268  1.506 .      S
C266  H268  1.104 .      S
C267  H269  1.100 .      S
C267  H270  1.091 .      S
C267  H271  1.097 .      S
C270  H272  1.020 .      S
C271  H273  1.074 .      S
C272  C275  1.437 .      S
C273  H274  1.035 .      S
C275  O50   1.341 .      S
O50   H275  0.960 .      S
C276  C277  1.506 .      S
C276  H276  1.103 .      S
C276  H277  1.101 .      S
C276  H278  1.094 .      S
C277  C278  1.519 .      S
C277  C279  1.495 .      S
C277  H279  1.088 .      S
C278  H280  1.103 .      S
C278  H281  1.104 .      S
C278  H282  1.106 .      S
C281  H283  1.067 .      S
C282  H284  1.081 .      S
C283  C286  1.468 .      S
C284  H285  1.068 .      S
C286  O52   1.345 .      S
O52   H286  0.965 .      S
C287  C288  1.503 .      S
C287  H287  1.102 .      S
C287  H288  1.092 .      S
C287  H289  1.091 .      S
C288  C289  1.497 .      S
C288  C290  1.436 .      S
C288  H290  1.039 .      S
C289  H291  1.104 .      S
C289  H292  1.104 .      S
C289  H293  1.095 .      S
C292  H294  1.048 .      S
C293  H295  1.081 .      S
C294  C297  1.468 .      S
C295  H296  1.050 .      S
C297  O54   1.347 .      S
O54   H297  0.966 .      S
C298  C299  1.488 .      S
C298  H298  1.091 .      S
C298  H299  1.103 .      S
C298  H300  1.103 .      S
C299  C300  1.510 .      S
C299  C301  1.382 .      S
C299  H301  1.084 .      S
C300  H302  1.107 .      S
C300  H303  1.103 .      S
C300  H304  1.100 .      S
C303  H305  1.077 .      S
C304  H306  1.081 .      S
C305  C308  1.468 .      S
C306  H307  1.078 .      S
C308  O56   1.347 .      S
O56   H308  0.966 .      S
C309  C310  1.503 .      S
C309  H309  1.101 .      S
C309  H310  1.083 .      S
C309  H311  1.100 .      S
C310  C311  1.464 .      S
C310  C312  1.503 .      S
C310  H312  1.091 .      S
C311  H313  1.104 .      S
C311  H314  1.084 .      S
C311  H315  1.106 .      S
C314  H316  1.052 .      S
C315  H317  1.080 .      S
C316  C319  1.464 .      S
C317  H318  1.058 .      S
C319  O58   1.342 .      S
O58   H319  0.966 .      S
C320  C321  1.507 .      S
C320  H320  1.094 .      S
C320  H321  1.108 .      S
C320  H322  1.110 .      S
C321  C322  1.512 .      S
C321  C323  1.498 .      S
C321  H323  1.102 .      S
C322  H324  1.103 .      S
C322  H325  1.105 .      S
C322  H326  1.106 .      S
C325  H327  1.075 .      S
C326  H328  1.071 .      S
C327  C330  1.466 .      S
C328  H329  1.078 .      S
C330  O60   1.345 .      S
O60   H330  0.966 .      S
C331  C332  1.489 1_565  S
C331  H331  1.098 1_565  S
C331  H332  1.104 .      S
C331  H333  1.078 .      S
C332  C331  1.489 1_545  S
C332  C333  1.504 1_545  S
C332  C334  1.493 .      S
C332  H334  1.092 .      S
C333  C332  1.504 1_565  S
C333  H335  1.108 .      S
C333  H336  1.100 1_565  S
C333  H337  1.109 .      S
C336  H338  1.076 .      S
C337  H339  1.080 .      S
C338  C341  1.463 .      S
C339  H340  1.068 .      S
C341  O62   1.342 .      S
O62   H341  0.966 .      S
H331  C331  1.098 1_545  S
H336  C333  1.100 1_545  S
C342  C343  1.477 .      S
C342  H342  1.082 .      S
C342  H343  1.103 .      S
C342  H344  1.073 .      S
C343  C344  1.505 .      S
C343  C345  1.476 .      S
C343  H345  1.092 .      S
C344  H346  1.109 .      S
C344  H347  1.109 .      S
C344  H348  1.093 .      S
C347  H349  1.056 .      S
C348  H350  1.080 .      S
C349  C352  1.468 .      S
C350  H351  1.079 .      S
C352  O64   1.346 .      S
O64   H352  0.966 .      S
C353  C354  1.465 .      S
C353  H353  1.091 .      S
C353  H354  1.098 .      S
C353  H355  1.080 .      S
C354  C355  1.493 .      S
C354  C356  1.444 .      S
C354  H356  1.091 .      S
C355  H357  1.099 .      S
C355  H358  1.103 .      S
C355  H359  1.081 .      S
C358  H360  1.070 .      S
C359  H361  1.081 .      S
C360  C363  1.459 1_545  S
C361  H362  1.069 .      S
C363  C360  1.459 1_565  S
C363  O66   1.344 .      S
O66   H363  0.965 .      S
C364  C365  1.509 1_455  S
C364  H364  1.104 1_455  S
C364  H365  1.106 .      S
C364  H366  1.104 .      S
C365  C364  1.509 1_655  S
C365  C366  1.521 1_655  S
C365  C367  1.513 .      S
C365  H367  1.109 .      S
C366  C365  1.521 1_455  S
C366  H368  1.101 .      S
C366  H369  1.109 .      S
C366  H370  1.103 .      S
C369  H371  1.070 .      S
C370  H372  1.079 .      S
C371  C374  1.468 .      S
C372  H373  1.071 .      S
C374  O68   1.346 .      S
O68   H374  0.966 .      S
H364  C364  1.104 1_655  S
C375  C376  1.479 .      S
C375  H375  1.095 .      S
C375  H376  1.109 .      S
C375  H377  1.106 .      S
C376  C377  1.521 .      S
C376  C378  1.500 .      S
C376  H378  1.080 .      S
C377  H379  1.106 .      S
C377  H380  1.107 .      S
C377  H381  1.101 .      S
C380  H382  1.061 .      S
C381  H383  1.070 .      S
C382  C385  1.420 .      S
C383  H384  1.062 .      S
C385  O70   1.338 .      S
O70   H385  0.954 .      S
C386  C387  1.518 .      S
C386  H386  1.101 .      S
C386  H387  1.109 .      S
C386  H388  1.101 .      S
C387  C388  1.494 .      S
C387  C389  1.517 .      S
C387  H389  1.084 .      S
C388  H390  1.103 .      S
C388  H391  1.108 1_455  S
C388  H392  1.088 .      S
C391  H393  1.044 .      S
C392  H394  1.054 .      S
C393  C396  1.437 .      S
C394  H395  1.070 .      S
C396  O72   1.323 .      S
O72   H396  0.949 .      S
H391  C388  1.108 1_655  S
C397  C398  1.493 .      S
C397  H397  1.081 .      S
C397  H398  1.104 .      S
C397  H399  1.087 .      S
C398  C399  1.508 .      S
C398  C400  1.434 .      S
C398  H400  1.082 .      S
C399  H401  1.109 .      S
C399  H402  1.098 .      S
C399  H403  1.089 .      S
C402  H404  1.081 .      S
C403  H405  1.080 .      S
C404  C407  1.466 .      S
C405  H406  1.055 .      S
C407  O74   1.346 .      S
O74   H407  0.965 .      S
C408  C409  1.511 .      S
C408  H408  1.090 .      S
C408  H409  1.098 .      S
C408  H410  1.105 .      S
C409  C410  1.453 .      S
C409  C411  1.475 .      S
C409  H411  1.066 .      S
C410  H412  1.091 .      S
C410  H413  1.094 .      S
C410  H414  1.096 .      S
C413  H415  1.064 .      S
C414  H416  1.080 .      S
C415  C418  1.464 .      S
C416  H417  1.073 .      S
C418  O76   1.346 .      S
O76   H418  0.966 .      S
C419  C420  1.518 .      S
C419  H419  1.102 .      S
C419  H420  1.107 .      S
C419  H421  1.087 .      S
C420  C421  1.515 .      S
C420  C422  1.473 .      S
C420  H422  1.069 .      S
C421  H423  1.082 .      S
C421  H424  1.089 .      S
C421  H425  1.104 .      S
C424  H426  1.034 .      S
C425  H427  1.081 .      S
C426  C429  1.464 .      S
C427  H428  1.035 .      S
C429  O78   1.343 .      S
O78   H429  0.964 .      S
C430  C431  1.498 .      S
C430  H430  1.105 .      S
C430  H431  1.080 .      S
C430  H432  1.101 .      S
C431  C432  1.490 .      S
C431  C433  1.396 .      S
C431  H433  1.075 .      S
C432  H434  1.107 .      S
C432  H435  1.100 .      S
C432  H436  1.082 .      S
C435  H437  1.048 .      S
C436  H438  1.076 .      S
C437  C440  1.378 .      S
C438  H439  1.052 .      S
C440  O80   1.338 .      S
O80   H440  0.954 .      S
C441  C442  1.487 .      S
C441  H441  1.105 .      S
C441  H442  1.103 .      S
C441  H443  1.101 .      S
C442  C443  1.518 .      S
C442  C444  1.515 .      S
C442  H444  1.099 .      S
C443  H445  1.101 .      S
C443  H446  1.109 .      S
C443  H447  1.100 .      S
C446  H448  1.074 .      S
C447  H449  1.065 .      S
C448  C451  1.458 .      S
C449  H450  1.047 .      S
C451  O82   1.339 .      S
O82   H451  0.962 .      S
C452  C453  1.492 .      S
C452  H452  1.081 .      S
C452  H453  1.085 .      S
C452  H454  1.105 .      S
C453  C454  1.519 .      S
C453  C455  1.490 .      S
C453  H455  1.084 .      S
C454  H456  1.099 .      S
C454  H457  1.109 .      S
C454  H458  1.090 .      S
C457  H459  1.079 .      S
C458  H460  1.077 .      S
C459  C462  1.466 .      S
C460  H461  1.067 .      S
C462  O84   1.346 .      S
O84   H462  0.965 .      S
C463  C464  1.521 .      S
C463  H463  1.096 .      S
C463  H464  1.105 .      S
C463  H465  1.098 .      S
C464  C465  1.489 .      S
C464  C466  1.476 .      S
C464  H466  1.094 .      S
C465  H467  1.100 .      S
C465  H468  1.091 .      S
C465  H469  1.101 .      S
C468  H470  1.059 .      S
C469  H471  1.036 .      S
C470  C473  1.459 .      S
C471  H472  1.063 .      S
C473  O86   1.347 .      S
O86   H473  0.961 1_565  S
H473  O86   0.961 1_545  S
C474  C475  1.503 .      S
C474  H474  1.092 .      S
C474  H475  1.090 .      S
C474  H476  1.091 .      S
C475  C476  1.479 .      S
C475  C477  1.458 .      S
C475  H477  1.076 .      S
C476  H478  1.074 .      S
C476  H479  1.083 .      S
C476  H480  1.097 .      S
C479  H481  1.062 .      S
C480  H482  1.055 .      S
C481  C484  1.447 .      S
C482  H483  1.075 .      S
C484  O88   1.344 .      S
O88   H484  0.962 .      S
C485  C486  1.511 .      S
C485  H485  1.100 .      S
C485  H486  1.109 .      S
C485  H487  1.102 .      S
C486  C487  1.491 .      S
C486  C488  1.506 .      S
C486  H488  1.107 .      S
C487  H489  1.103 .      S
C487  H490  1.107 .      S
C487  H491  1.098 .      S
C490  H492  1.033 .      S
C491  H493  1.079 .      S
C492  C495  1.467 .      S
C493  H494  1.068 .      S
C495  O90   1.344 .      S
O90   H495  0.966 .      S
C496  C497  1.501 .      S
C496  H496  1.093 .      S
C496  H497  1.080 .      S
C496  H498  1.090 .      S
C497  C498  1.443 .      S
C497  C499  1.485 .      S
C497  H499  1.093 .      S
C498  H500  1.096 .      S
C498  H501  1.086 .      S
C498  H502  1.069 .      S
C501  H503  1.078 .      S
C502  H504  1.079 .      S
C503  C506  1.428 .      S
C504  H505  1.038 .      S
C506  O92   1.342 .      S
O92   H506  0.950 .      S
C507  C508  1.514 .      S
C507  H507  1.096 .      S
C507  H508  1.097 .      S
C507  H509  1.104 .      S
C508  C509  1.476 .      S
C508  C510  1.498 .      S
C508  H510  1.090 .      S
C509  H511  1.083 .      S
C509  H512  1.098 .      S
C509  H513  1.097 .      S
C512  H514  1.060 .      S
C513  H515  1.067 .      S
C514  C517  1.464 .      S
C515  H516  1.064 .      S
C517  O94   1.342 .      S
O94   H517  0.964 1_565  S
H517  O94   0.964 1_545  S
C518  C519  1.480 .      S
C518  H518  1.097 .      S
C518  H519  1.103 .      S
C518  H520  1.093 .      S
C519  C520  1.432 .      S
C519  C521  1.484 .      S
C519  H521  1.093 .      S
C520  H522  1.088 .      S
C520  H523  1.110 .      S
C520  H524  1.099 .      S
C523  H525  1.055 .      S
C524  H526  1.078 .      S
C525  C528  1.466 1_565  S
C526  H527  1.071 .      S
C528  C525  1.466 1_545  S
C528  O96   1.344 .      S
O96   H528  0.966 .      S
C529  C530  1.503 .      S
C529  H529  1.108 .      S
C529  H530  1.101 .      S
C529  H531  1.103 .      S
C530  C531  1.522 .      S
C530  C532  1.453 .      S
C530  H532  1.071 .      S
C531  H533  1.101 .      S
C531  H534  1.109 .      S
C531  H535  1.107 .      S
C534  H536  1.067 .      S
C535  H537  1.078 .      S
C536  C539  1.464 .      S
C537  H538  1.080 .      S
C539  O98   1.346 .      S
O98   H539  0.966 .      S
C540  C541  1.520 .      S
C540  H540  1.097 .      S
C540  H541  1.109 .      S
C540  H542  1.105 .      S
C541  C542  1.519 .      S
C541  C543  1.498 .      S
C541  H543  1.102 .      S
C542  H544  1.100 .      S
C542  H545  1.106 .      S
C542  H546  1.103 .      S
C545  H547  1.079 .      S
C546  H548  1.080 .      S
C547  C550  1.412 .      S
C548  H549  1.051 1_565  S
C550  O100  1.340 .      S
O100  H550  0.947 .      S
H549  C548  1.051 1_545  S
C551  C552  1.514 .      S
C551  H551  1.096 1_556  S
C551  H552  1.101 .      S
C551  H553  1.098 .      S
C552  C553  1.512 1_556  S
C552  C554  1.515 1_556  S
C552  H554  1.102 .      S
C553  C552  1.512 1_554  S
C553  H555  1.082 .      S
C553  H556  1.108 1_554  S
C553  H557  1.106 .      S
C554  C552  1.515 1_554  S
C556  H558  1.061 .      S
C557  H559  1.080 .      S
C558  C561  1.435 .      S
C559  H560  1.038 .      S
N102  Zn40  2.274 1_554  S
C561  O102  1.329 .      S
O102  H561  0.955 .      S
H551  C551  1.096 1_554  S
H556  C553  1.108 1_556  S
C562  C563  1.467 .      S
C562  H562  1.109 .      S
C562  H563  1.097 .      S
C562  H564  1.097 1_554  S
C563  C564  1.527 .      S
C563  C565  1.461 .      S
C563  H565  1.064 .      S
C564  H566  1.099 .      S
C564  H567  1.106 .      S
C564  H568  1.109 1_554  S
N103  Zn41  2.094 1_554  S
C567  H569  1.056 .      S
C568  H570  1.059 .      S
C569  C572  1.442 .      S
C570  H571  1.013 .      S
C572  O104  1.332 .      S
O104  H572  0.959 .      S
H564  C562  1.097 1_556  S
H568  C564  1.109 1_556  S
C573  C574  1.483 .      S
C573  H573  1.105 .      S
C573  H574  1.109 .      S
C573  H575  1.104 .      S
C574  C575  1.503 .      S
C574  C576  1.496 .      S
C574  H576  1.105 .      S
C575  H577  1.099 .      S
C575  H578  1.109 .      S
C575  H579  1.106 .      S
C578  H580  1.061 .      S
C579  H581  1.064 .      S
C580  C583  1.456 .      S
C581  H582  1.055 .      S
C583  O106  1.335 .      S
O106  H583  0.963 .      S
C584  C585  1.495 .      S
C584  H584  1.099 .      S
C584  H585  1.104 .      S
C584  H586  1.085 .      S
C585  C586  1.521 .      S
C585  C587  1.487 .      S
C585  H587  1.078 .      S
C586  H588  1.099 .      S
C586  H589  1.108 .      S
C586  H590  1.096 .      S
C589  H591  1.080 .      S
C590  H592  1.080 .      S
C591  C594  1.468 .      S
C592  H593  1.079 .      S
C594  O108  1.347 .      S
O108  H594  0.966 .      S
C595  C596  1.500 .      S
C595  H595  1.095 .      S
C595  H596  1.107 .      S
C595  H597  1.080 .      S
C596  C597  1.493 .      S
C596  C598  1.493 .      S
C596  H598  1.103 .      S
C597  H599  1.106 .      S
C597  H600  1.091 .      S
C597  H601  1.095 .      S
C600  H602  1.060 .      S
C601  H603  1.067 .      S
C602  C605  1.459 .      S
C603  H604  1.064 .      S
C605  O110  1.346 .      S
O110  H605  0.963 .      S
C606  C607  1.509 .      S
C606  H606  1.105 .      S
C606  H607  1.095 .      S
C606  H608  1.108 .      S
C607  C608  1.502 .      S
C607  C609  1.425 .      S
C607  H609  1.081 .      S
C608  H610  1.094 .      S
C608  H611  1.097 .      S
C608  H612  1.084 .      S
C611  H613  1.053 .      S
C612  H614  1.080 .      S
C613  C616  1.468 .      S
C614  H615  1.070 1_565  S
C616  O112  1.346 .      S
O112  H616  0.966 .      S
H615  C614  1.070 1_545  S
C617  C618  1.507 .      S
C617  H617  1.105 .      S
C617  H618  1.093 .      S
C617  H619  1.106 .      S
C618  C619  1.518 .      S
C618  C620  1.458 .      S
C618  H620  1.094 .      S
C619  H621  1.085 .      S
C619  H622  1.103 .      S
C619  H623  1.062 .      S
C622  H624  1.078 .      S
C623  H625  1.072 .      S
C624  C627  1.443 .      S
C625  H626  1.069 .      S
C627  O114  1.347 .      S
O114  H627  0.965 .      S
C628  C629  1.492 .      S
C628  H628  1.100 .      S
C628  H629  1.105 .      S
C628  H630  1.107 .      S
C629  C630  1.514 .      S
C629  C631  1.500 .      S
C629  H631  1.087 1_545  S
C630  H632  1.108 .      S
C630  H633  1.108 .      S
C630  H634  1.104 .      S
C633  H635  1.079 1_545  S
C634  H636  1.072 .      S
C635  C638  1.458 .      S
C636  H637  1.067 .      S
C638  O116  1.335 .      S
O116  H638  0.964 .      S
H631  C629  1.087 1_565  S
H635  C633  1.079 1_565  S
C639  C640  1.517 .      S
C639  H639  1.103 .      S
C639  H640  1.109 1_565  S
C639  H641  1.109 .      S
C640  C641  1.502 .      S
C640  C642  1.464 .      S
C640  H642  1.068 .      S
C641  H643  1.082 .      S
C641  H644  1.090 .      S
C641  H645  1.099 .      S
C644  H646  1.064 .      S
C645  H647  1.079 .      S
C646  C649  1.456 1_455  S
C647  H648  1.058 .      S
N118  Zn30  2.323 1_455  S
C649  C646  1.456 1_655  S
C649  O118  1.334 .      S
O118  H649  0.959 .      S
H640  C639  1.109 1_545  S
C650  C651  1.450 .      S
C650  H650  1.096 .      S
C650  H651  1.109 .      S
C650  H652  1.102 .      S
C651  C652  1.505 1_565  S
C651  C653  1.491 1_565  S
C651  H653  1.083 .      S
C652  C651  1.505 1_545  S
C652  H654  1.091 .      S
C652  H655  1.109 .      S
C652  H656  1.109 .      S
C653  C651  1.491 1_545  S
C655  H657  1.071 .      S
C656  H658  1.080 .      S
C657  C660  1.469 .      S
C658  H659  1.041 1_645  S
C660  O120  1.343 .      S
O120  H660  0.966 .      S
H659  C658  1.041 1_465  S
C661  C662  1.492 .      S
C661  H661  1.084 .      S
C661  H662  1.102 .      S
C661  H663  1.097 .      S
C662  C663  1.488 .      S
C662  C664  1.470 1_455  S
C662  H664  1.100 .      S
C663  H665  1.100 .      S
C663  H666  1.099 .      S
C663  H667  1.078 .      S
C664  C662  1.470 1_655  S
C666  H668  1.065 .      S
C667  H669  1.072 .      S
C668  C671  1.467 .      S
C669  H670  1.060 .      S
C671  O122  1.344 .      S
O122  H671  0.965 .      S
C672  C673  1.495 1_655  S
C672  H672  1.091 1_655  S
C672  H673  1.093 .      S
C672  H674  1.106 .      S
C673  C672  1.495 1_455  S
C673  C674  1.490 .      S
C673  C675  1.405 .      S
C673  H675  1.032 1_455  S
C674  H676  1.107 .      S
C674  H677  1.103 .      S
C674  H678  1.065 .      S
C677  H679  1.079 .      S
C678  H680  1.080 1_655  S
C679  C682  1.468 .      S
C680  H681  1.062 .      S
C682  O124  1.345 .      S
O124  H682  0.966 .      S
H672  C672  1.091 1_455  S
H675  C673  1.032 1_655  S
H680  C678  1.080 1_455  S
C683  C684  1.458 .      S
C683  H683  1.091 .      S
C683  H684  1.075 .      S
C683  H685  1.094 .      S
C684  C685  1.473 .      S
C684  C686  1.439 .      S
C684  H686  1.095 .      S
C685  H687  1.104 .      S
C685  H688  1.099 .      S
C685  H689  1.102 .      S
C688  H690  1.073 .      S
C689  H691  1.080 .      S
C690  C693  1.466 .      S
C691  H692  1.064 .      S
C693  O126  1.345 .      S
O126  H693  0.965 .      S
C694  C695  1.501 1_455  S
C694  H694  1.100 .      S
C694  H695  1.101 .      S
C694  H696  1.105 .      S
C695  C694  1.501 1_655  S
C695  C696  1.525 .      S
C695  C697  1.480 .      S
C695  H697  1.078 .      S
C696  H698  1.106 .      S
C696  H699  1.101 .      S
C696  H700  1.105 .      S
C699  H701  1.077 .      S
C700  H702  1.054 .      S
C701  C704  1.442 .      S
C702  H703  1.066 .      S
C704  O128  1.335 .      S
O128  H704  0.964 .      S
C705  C706  1.517 .      S
C705  H705  1.105 .      S
C705  H706  1.097 .      S
C705  H707  1.106 .      S
C706  C707  1.489 .      S
C706  C708  1.457 .      S
C706  H708  1.093 .      S
C707  H709  1.096 .      S
C707  H710  1.098 .      S
C707  H711  1.092 .      S
C710  H712  1.057 .      S
C711  H713  1.081 .      S
C712  C715  1.462 .      S
C713  H714  1.074 .      S
C715  O130  1.346 1_565  S
O130  C715  1.346 1_545  S
O130  H715  0.965 .      S
C716  C717  1.491 .      S
C716  H716  1.084 .      S
C716  H717  1.100 .      S
C716  H718  1.107 .      S
C717  C718  1.521 .      S
C717  C719  1.453 .      S
C717  H719  1.077 .      S
C718  H720  1.101 .      S
C718  H721  1.095 .      S
C718  H722  1.099 .      S
C721  H723  1.066 .      S
C722  H724  1.069 .      S
C723  C726  1.448 .      S
C724  H725  1.071 .      S
C726  O132  1.334 .      S
O132  H726  0.963 .      S
C727  C728  1.516 .      S
C727  H727  1.095 .      S
C727  H728  1.108 .      S
C727  H729  1.103 1_655  S
C728  C729  1.481 .      S
C728  C730  1.450 1_655  S
C728  H730  1.068 .      S
C729  H731  1.105 .      S
C729  H732  1.098 .      S
C729  H733  1.098 .      S
C730  C728  1.450 1_455  S
C732  H734  1.064 .      S
C733  H735  1.060 .      S
C734  C737  1.449 .      S
C735  H736  1.056 .      S
C737  O134  1.332 .      S
O134  H737  0.959 .      S
H729  C727  1.103 1_455  S
C738  C739  1.496 .      S
C738  H738  1.103 .      S
C738  H739  1.101 .      S
C738  H740  1.099 .      S
C739  C740  1.497 .      S
C739  C741  1.451 .      S
C739  H741  1.100 .      S
C740  H742  1.108 .      S
C740  H743  1.096 .      S
C740  H744  1.095 .      S
C743  H745  1.047 .      S
C744  H746  1.077 .      S
C745  C748  1.459 .      S
C746  H747  1.051 .      S
C748  O136  1.346 .      S
O136  H748  0.966 .      S
C749  C750  1.473 .      S
C749  H749  1.093 .      S
C749  H750  1.080 .      S
C749  H751  1.092 .      S
C750  C751  1.479 .      S
C750  C752  1.458 .      S
C750  H752  1.087 .      S
C751  H753  1.107 .      S
C751  H754  1.103 .      S
C751  H755  1.098 .      S
C754  H756  1.070 .      S
C755  H757  1.081 .      S
C756  C759  1.474 .      S
C757  H758  1.076 .      S
C759  O138  1.347 .      S
O138  H759  0.963 .      S
C760  C761  1.512 .      S
C760  H760  1.095 .      S
C760  H761  1.109 .      S
C760  H762  1.106 .      S
C761  C762  1.509 .      S
C761  C763  1.489 .      S
C761  H763  1.090 .      S
C762  H764  1.104 .      S
C762  H765  1.108 .      S
C762  H766  1.095 .      S
C765  H767  1.071 .      S
C766  H768  1.080 .      S
C767  C770  1.458 .      S
C768  H769  1.038 .      S
C770  O140  1.336 .      S
O140  H770  0.959 .      S
C771  C772  1.497 .      S
C771  H771  1.099 .      S
C771  H772  1.104 .      S
C771  H773  1.097 .      S
C772  C773  1.498 .      S
C772  C774  1.467 .      S
C772  H774  1.096 .      S
C773  H775  1.102 .      S
C773  H776  1.102 .      S
C773  H777  1.089 .      S
C776  H778  1.078 .      S
C777  H779  1.070 .      S
C778  C781  1.463 .      S
C779  H780  1.078 .      S
C781  O142  1.344 .      S
O142  H781  0.964 .      S
C782  C783  1.525 .      S
C782  H782  1.091 .      S
C782  H783  1.101 .      S
C782  H784  1.087 .      S
C783  C784  1.469 .      S
C783  C785  1.385 .      S
C783  H785  1.082 .      S
C784  H786  1.082 .      S
C784  H787  1.085 .      S
C784  H788  1.063 .      S
C787  H789  1.079 .      S
C788  H790  1.081 .      S
C789  C792  1.468 1_655  S
C790  H791  1.074 .      S
C792  C789  1.468 1_455  S
C792  O144  1.346 .      S
O144  H792  0.966 .      S
C793  C794  1.511 .      S
C793  H793  1.108 .      S
C793  H794  1.101 1_455  S
C793  H795  1.084 .      S
C794  C795  1.475 .      S
C794  C796  1.465 .      S
C794  H796  1.078 .      S
C795  H797  1.098 .      S
C795  H798  1.102 .      S
C795  H799  1.067 .      S
C798  H800  1.074 1_655  S
C799  H801  1.079 .      S
C800  C803  1.468 .      S
C801  H802  1.078 .      S
C803  O146  1.346 .      S
O146  H803  0.966 .      S
H794  C793  1.101 1_655  S
H800  C798  1.074 1_455  S
C804  C805  1.514 .      S
C804  H804  1.095 .      S
C804  H805  1.103 .      S
C804  H806  1.107 .      S
C805  C806  1.489 .      S
C805  C807  1.460 .      S
C805  H807  1.090 .      S
C806  H808  1.102 .      S
C806  H809  1.097 .      S
C806  H810  1.105 .      S
N147  Zn47  2.218 1_556  S
C809  H811  1.063 .      S
C810  H812  1.080 1_565  S
C811  C814  1.464 1_565  S
C812  H813  1.077 .      S
C814  C811  1.464 1_545  S
C814  O148  1.342 .      S
O148  H814  0.965 .      S
H812  C810  1.080 1_545  S
C815  C816  1.503 .      S
C815  H815  1.090 .      S
C815  H816  1.099 .      S
C815  H817  1.101 .      S
C816  C817  1.481 .      S
C816  C818  1.439 .      S
C816  H818  1.047 .      S
C817  H819  1.104 .      S
C817  H820  1.084 .      S
C817  H821  1.092 .      S
C820  H822  1.071 .      S
C821  H823  1.053 .      S
C822  C825  1.469 .      S
C823  H824  1.080 .      S
C825  O150  1.345 .      S
O150  H825  0.966 .      S
C826  C827  1.500 .      S
C826  H826  1.107 1_455  S
C826  H827  1.101 .      S
C826  H828  1.107 .      S
C827  C828  1.477 .      S
C827  C829  1.473 .      S
C827  H829  1.107 .      S
C828  H830  1.096 .      S
C828  H831  1.087 .      S
C828  H832  1.091 1_455  S
C831  H833  1.070 .      S
C832  H834  1.081 1_565  S
C833  C836  1.462 .      S
C834  H835  1.069 1_565  S
C836  O152  1.340 .      S
O152  H836  0.965 .      S
H826  C826  1.107 1_655  S
H832  C828  1.091 1_655  S
H834  C832  1.081 1_545  S
H835  C834  1.069 1_545  S
C837  C838  1.511 .      S
C837  H837  1.101 .      S
C837  H838  1.107 .      S
C837  H839  1.104 1_565  S
C838  C839  1.507 .      S
C838  C840  1.474 .      S
C838  H840  1.092 1_565  S
C839  H841  1.098 .      S
C839  H842  1.104 .      S
C839  H843  1.103 .      S
C842  H844  1.073 1_545  S
C843  H845  1.080 .      S
C844  C847  1.469 .      S
C845  H846  1.071 .      S
C847  O154  1.346 .      S
O154  H847  0.966 .      S
H839  C837  1.104 1_545  S
H840  C838  1.092 1_545  S
H844  C842  1.073 1_565  S
C848  C849  1.513 .      S
C848  H848  1.106 .      S
C848  H849  1.109 .      S
C848  H850  1.108 .      S
C849  C850  1.501 .      S
C849  C851  1.491 .      S
C849  H851  1.083 1_455  S
C850  H852  1.093 .      S
C850  H853  1.099 .      S
C850  H854  1.101 .      S
C853  H855  1.068 .      S
C854  H856  1.077 .      S
C855  C858  1.461 .      S
C856  H857  1.066 .      S
N156  Zn39  2.224 1_455  S
C858  O156  1.343 .      S
O156  H858  0.966 .      S
H851  C849  1.083 1_655  S
C859  C860  1.486 .      S
C859  H859  1.106 .      S
C859  H860  1.095 .      S
C859  H861  1.104 .      S
C860  C861  1.516 .      S
C860  C862  1.444 .      S
C860  H862  1.075 .      S
C861  H863  1.097 .      S
C861  H864  1.100 .      S
C861  H865  1.072 .      S
C864  H866  1.067 .      S
C865  H867  1.081 .      S
C866  C869  1.467 .      S
C867  H868  1.079 .      S
C869  O158  1.346 .      S
O158  H869  0.966 .      S
C870  C871  1.504 1_655  S
C870  H870  1.086 .      S
C870  H871  1.102 1_655  S
C870  H872  1.095 .      S
C871  C870  1.504 1_455  S
C871  C872  1.513 .      S
C871  C873  1.471 1_455  S
C871  H873  1.092 .      S
C872  H874  1.081 .      S
C872  H875  1.094 .      S
C872  H876  1.107 .      S
C873  C871  1.471 1_655  S
C875  H877  1.076 .      S
C876  H878  1.079 .      S
C877  C880  1.471 .      S
C878  H879  1.069 .      S
C880  O160  1.351 .      S
O160  H880  0.964 .      S
H871  C870  1.102 1_455  S
C881  C882  1.504 .      S
C881  H881  1.101 .      S
C881  H882  1.108 .      S
C881  H883  1.092 1_556  S
C882  C883  1.510 .      S
C882  C884  1.504 1_556  S
C882  H884  1.092 1_556  S
C883  H885  1.105 .      S
C883  H886  1.107 .      S
C883  H887  1.102 .      S
C884  C882  1.504 1_554  S
N161  Zn40  2.182 1_554  S
C886  H888  1.045 .      S
C887  H889  1.080 .      S
C888  C891  1.469 .      S
C889  H890  1.066 .      S
C891  O162  1.346 .      S
O162  H891  0.966 .      S
H883  C881  1.092 1_554  S
H884  C882  1.092 1_554  S
C892  C893  1.501 .      S
C892  H892  1.094 .      S
C892  H893  1.099 .      S
C892  H894  1.087 .      S
C893  C894  1.510 .      S
C893  C895  1.457 .      S
C893  H895  1.089 .      S
C894  H896  1.108 .      S
C894  H897  1.103 .      S
C894  H898  1.083 .      S
C897  H899  1.061 .      S
C898  H900  1.079 .      S
C899  C902  1.469 .      S
C900  H901  1.052 .      S
C902  O164  1.342 .      S
O164  H902  0.966 .      S
C903  C904  1.456 .      S
C903  H903  1.089 .      S
C903  H904  1.093 .      S
C903  H905  1.085 .      S
C904  C905  1.510 .      S
C904  C906  1.466 .      S
C904  H906  1.090 .      S
C905  H907  1.108 .      S
C905  H908  1.102 .      S
C905  H909  1.094 .      S
C908  H910  1.069 .      S
C909  H911  1.081 .      S
C910  C913  1.463 .      S
C911  H912  1.078 .      S
C913  O166  1.345 .      S
O166  H913  0.966 1_655  S
H913  O166  0.966 1_455  S
C914  C915  1.479 .      S
C914  H914  1.090 .      S
C914  H915  1.080 .      S
C914  H916  1.097 .      S
C915  C916  1.501 .      S
C915  C917  1.512 .      S
C915  H917  1.094 .      S
C916  H918  1.092 .      S
C916  H919  1.105 .      S
C916  H920  1.097 .      S
C919  H921  1.063 1_556  S
C920  H922  1.076 .      S
C921  C924  1.466 1_565  S
C922  H923  1.061 .      S
N168  Zn41  2.158 1_554  S
C924  C921  1.466 1_545  S
C924  O168  1.345 .      S
O168  H924  0.966 .      S
H921  C919  1.063 1_554  S
C925  C926  1.486 .      S
C925  H925  1.085 1_545  S
C925  H926  1.101 .      S
C925  H927  1.103 .      S
C926  C927  1.515 .      S
C926  C928  1.470 .      S
C926  H928  1.069 .      S
C927  H929  1.107 1_554  S
C927  H930  1.108 .      S
C927  H931  1.103 1_554  S
N169  Zn41  2.142 1_554  S
C930  H932  1.057 .      S
C931  H933  1.081 .      S
C932  C935  1.468 .      S
C933  H934  1.043 1_556  S
C935  O170  1.346 .      S
O170  H935  0.966 .      S
H925  C925  1.085 1_565  S
H929  C927  1.107 1_556  S
H931  C927  1.103 1_556  S
H934  C933  1.043 1_554  S
C936  C937  1.530 .      S
C936  H936  1.102 .      S
C936  H937  1.107 .      S
C936  H938  1.103 .      S
C937  C938  1.509 .      S
C937  C939  1.510 .      S
C937  H939  1.097 .      S
C938  H940  1.101 .      S
C938  H941  1.096 .      S
C938  H942  1.108 .      S
C941  H943  1.065 .      S
C942  H944  1.080 .      S
C943  C946  1.469 .      S
C944  H945  1.069 .      S
C946  O172  1.341 .      S
O172  H946  0.966 .      S
C947  C948  1.494 .      S
C947  H947  1.095 .      S
C947  H948  1.101 .      S
C947  H949  1.088 1_556  S
C948  C949  1.507 .      S
C948  C950  1.484 1_556  S
C948  H950  1.107 .      S
C949  H951  1.102 .      S
C949  H952  1.103 .      S
C949  H953  1.086 1_455  S
C950  C948  1.484 1_554  S
N173  Zn42  2.112 1_455  S
C952  H954  1.080 1_455  S
C953  H955  1.076 1_565  S
C954  C957  1.462 1_565  S
C955  H956  1.073 .      S
C957  C954  1.462 1_545  S
C957  O174  1.346 .      S
O174  H957  0.966 .      S
H949  C947  1.088 1_554  S
H953  C949  1.086 1_655  S
H954  C952  1.080 1_655  S
H955  C953  1.076 1_545  S
C958  C959  1.479 .      S
C958  H958  1.099 .      S
C958  H959  1.096 .      S
C958  H960  1.087 .      S
C959  C960  1.487 .      S
C959  C961  1.453 1_455  S
C959  H961  1.067 .      S
C960  H962  1.073 .      S
C960  H963  1.093 .      S
C960  H964  1.102 1_455  S
C961  C959  1.453 1_655  S
C963  H965  1.057 .      S
C964  H966  1.074 .      S
C965  C968  1.416 .      S
C966  H967  1.057 .      S
C968  O176  1.341 .      S
O176  H968  0.959 .      S
H964  C960  1.102 1_655  S
C969  C970  1.515 .      S
C969  H969  1.107 .      S
C969  H970  1.099 .      S
C969  H971  1.108 .      S
C970  C971  1.487 .      S
C970  C972  1.487 .      S
C970  H972  1.081 .      S
C971  H973  1.103 .      S
C971  H974  1.098 .      S
C971  H975  1.085 .      S
C974  H976  1.041 .      S
C975  H977  1.080 .      S
C976  C979  1.426 .      S
C977  H978  1.074 .      S
C979  O178  1.320 .      S
O178  H979  0.958 .      S
C980  C981  1.498 .      S
C980  H980  1.092 .      S
C980  H981  1.084 .      S
C980  H982  1.092 .      S
C981  C982  1.492 .      S
C981  C983  1.494 .      S
C981  H983  1.084 .      S
C982  H984  1.095 .      S
C982  H985  1.098 .      S
C982  H986  1.101 .      S
C985  H987  1.073 .      S
C986  H988  1.065 .      S
C987  C990  1.437 .      S
C988  H989  1.057 .      S
C990  O180  1.332 .      S
O180  H990  0.956 .      S
C991  C992  1.517 .      S
C991  H991  1.105 .      S
C991  H992  1.106 .      S
C991  H993  1.102 .      S
C992  C993  1.491 .      S
C992  C994  1.461 .      S
C992  H994  1.089 .      S
C993  H995  1.089 .      S
C993  H996  1.101 .      S
C993  H997  1.100 .      S
C996  H998  1.070 1_565  S
C997  H999  1.081 .      S
C998  C1001 1.469 .      S
C999  H1000 1.077 .      S
C1001 O182  1.346 .      S
O182  H1001 0.966 .      S
H998  C996  1.070 1_545  S
C1002 C1003 1.465 .      S
C1002 H1002 1.098 .      S
C1002 H1003 1.081 .      S
C1002 H1004 1.098 .      S
C1003 C1004 1.485 .      S
C1003 C1005 1.444 .      S
C1003 H1005 1.092 .      S
C1004 H1006 1.108 .      S
C1004 H1007 1.093 .      S
C1004 H1008 1.082 .      S
C1007 H1009 1.069 .      S
C1008 H1010 1.080 .      S
C1009 C1012 1.464 .      S
C1010 H1011 1.061 .      S
C1012 O184  1.342 .      S
O184  H1012 0.965 .      S
C1013 C1014 1.492 .      S
C1013 H1013 1.101 .      S
C1013 H1014 1.108 .      S
C1013 H1015 1.096 .      S
C1014 C1015 1.491 .      S
C1014 C1016 1.458 .      S
C1014 H1016 1.069 .      S
C1015 H1017 1.105 .      S
C1015 H1018 1.106 .      S
C1015 H1019 1.096 .      S
N185  Zn45  2.121 1_455  S
C1018 H1020 1.052 .      S
C1019 H1021 1.078 1_455  S
C1020 C1023 1.462 .      S
C1021 H1022 1.075 .      S
N186  Zn54  2.059 1_554  S
C1023 O186  1.338 .      S
O186  H1023 0.957 .      S
H1021 C1019 1.078 1_655  S
C1024 C1025 1.495 .      S
C1024 H1024 1.084 .      S
C1024 H1025 1.099 .      S
C1024 H1026 1.102 .      S
C1025 C1026 1.497 .      S
C1025 C1027 1.430 .      S
C1025 H1027 1.087 .      S
C1026 H1028 1.099 .      S
C1026 H1029 1.100 .      S
C1026 H1030 1.105 .      S
C1029 H1031 1.059 .      S
C1030 H1032 1.041 .      S
C1031 C1034 1.470 .      S
C1032 H1033 1.028 .      S
C1034 O188  1.342 .      S
O188  H1034 0.965 .      S
C1035 C1036 1.505 .      S
C1035 H1035 1.105 .      S
C1035 H1036 1.098 .      S
C1035 H1037 1.096 .      S
C1036 C1037 1.472 .      S
C1036 C1038 1.451 .      S
C1036 H1038 1.080 .      S
C1037 H1039 1.069 .      S
C1037 H1040 1.085 .      S
C1037 H1041 1.085 .      S
C1040 H1042 1.066 .      S
C1041 H1043 1.081 .      S
C1042 C1045 1.468 .      S
C1043 H1044 1.070 .      S
N190  Zn47  2.253 1_556  S
C1045 O190  1.346 .      S
O190  H1045 0.966 .      S
C1046 C1047 1.497 .      S
C1046 H1046 1.090 .      S
C1046 H1047 1.096 .      S
C1046 H1048 1.108 .      S
C1047 C1048 1.519 .      S
C1047 C1049 1.458 .      S
C1047 H1049 1.097 .      S
C1048 H1050 1.102 .      S
C1048 H1051 1.101 .      S
C1048 H1052 1.106 .      S
C1051 H1053 1.072 .      S
C1052 H1054 1.081 .      S
C1053 C1056 1.467 .      S
C1054 H1055 1.076 .      S
C1056 O192  1.346 .      S
O192  H1056 0.966 1_565  S
H1056 O192  0.966 1_545  S
C1057 C1058 1.490 .      S
C1057 H1057 1.101 .      S
C1057 H1058 1.105 .      S
C1057 H1059 1.099 .      S
C1058 C1059 1.499 .      S
C1058 C1060 1.434 .      S
C1058 H1060 1.090 .      S
C1059 H1061 1.085 .      S
C1059 H1062 1.101 .      S
C1059 H1063 1.086 .      S
C1062 H1064 1.070 .      S
C1063 H1065 1.081 .      S
C1064 C1067 1.465 .      S
C1065 H1066 1.063 .      S
C1067 O194  1.340 .      S
O194  H1067 0.964 .      S
C1068 C1069 1.492 .      S
C1068 H1068 1.090 .      S
C1068 H1069 1.092 .      S
C1068 H1070 1.109 .      S
C1069 C1070 1.516 .      S
C1069 C1071 1.486 .      S
C1069 H1071 1.066 .      S
C1070 H1072 1.104 .      S
C1070 H1073 1.103 .      S
C1070 H1074 1.077 .      S
C1073 H1075 1.081 .      S
C1074 H1076 1.079 .      S
C1075 C1078 1.470 .      S
C1076 H1077 1.065 .      S
C1078 O196  1.344 .      S
O196  H1078 0.965 .      S
C1079 C1080 1.506 .      S
C1079 H1079 1.100 .      S
C1079 H1080 1.092 .      S
C1079 H1081 1.089 .      S
C1080 C1081 1.506 .      S
C1080 C1082 1.461 .      S
C1080 H1082 1.094 .      S
C1081 H1083 1.102 .      S
C1081 H1084 1.087 .      S
C1081 H1085 1.071 .      S
C1084 H1086 1.071 .      S
C1085 H1087 1.080 .      S
C1086 C1089 1.463 .      S
C1087 H1088 1.077 .      S
C1089 O198  1.339 .      S
O198  H1089 0.964 .      S
C1090 C1091 1.476 .      S
C1090 H1090 1.072 .      S
C1090 H1091 1.098 .      S
C1090 H1092 1.105 .      S
C1091 C1092 1.524 .      S
C1091 C1093 1.453 .      S
C1091 H1093 1.074 .      S
C1092 H1094 1.103 .      S
C1092 H1095 1.106 .      S
C1092 H1096 1.102 .      S
C1095 H1097 1.071 .      S
C1096 H1098 1.081 .      S
C1097 C1100 1.467 .      S
C1098 H1099 1.072 .      S
C1100 O200  1.346 .      S
O200  H1100 0.966 .      S
C1101 C1102 1.483 .      S
C1101 H1101 1.104 .      S
C1101 H1102 1.108 .      S
C1101 H1103 1.087 .      S
C1102 C1103 1.511 .      S
C1102 C1104 1.510 .      S
C1102 H1104 1.096 .      S
C1103 H1105 1.102 .      S
C1103 H1106 1.109 .      S
C1103 H1107 1.103 .      S
C1106 H1108 1.079 .      S
C1107 H1109 1.052 .      S
C1108 C1111 1.472 .      S
C1109 H1110 1.076 .      S
C1111 O202  1.346 .      S
O202  H1111 0.966 .      S
C1112 C1113 1.483 .      S
C1112 H1112 1.092 .      S
C1112 H1113 1.102 .      S
C1112 H1114 1.090 .      S
C1113 C1114 1.482 .      S
C1113 C1115 1.436 .      S
C1113 H1115 1.101 .      S
C1114 H1116 1.099 .      S
C1114 H1117 1.100 .      S
C1114 H1118 1.062 .      S
C1117 H1119 1.079 .      S
C1118 H1120 1.078 .      S
C1119 C1122 1.464 .      S
C1120 H1121 1.057 .      S
C1122 O204  1.343 .      S
O204  H1122 0.966 .      S
C1123 C1124 1.502 .      S
C1123 H1123 1.075 .      S
C1123 H1124 1.086 .      S
C1123 H1125 1.097 .      S
C1124 C1125 1.448 .      S
C1124 C1126 1.439 .      S
C1124 H1126 1.091 .      S
C1125 H1127 1.085 .      S
C1125 H1128 1.092 .      S
C1125 H1129 1.074 .      S
C1128 H1130 1.064 .      S
C1129 H1131 1.080 .      S
C1130 C1133 1.458 .      S
C1131 H1132 1.060 .      S
C1133 O206  1.340 .      S
O206  H1133 0.963 .      S
C1134 C1135 1.460 .      S
C1134 H1134 1.076 .      S
C1134 H1135 1.081 .      S
C1134 H1136 1.099 .      S
C1135 C1136 1.507 .      S
C1135 C1137 1.417 .      S
C1135 H1137 1.071 .      S
C1136 H1138 1.100 .      S
C1136 H1139 1.101 .      S
C1136 H1140 1.098 .      S
C1139 H1141 1.074 .      S
C1140 H1142 1.081 .      S
C1141 C1144 1.468 .      S
C1142 H1143 1.073 .      S
C1144 O208  1.342 .      S
O208  H1144 0.966 .      S
C1145 C1146 1.507 1_565  S
C1145 H1145 1.109 .      S
C1145 H1146 1.098 .      S
C1145 H1147 1.108 .      S
C1146 C1145 1.507 1_545  S
C1146 C1147 1.476 1_545  S
C1146 C1148 1.483 .      S
C1146 H1148 1.077 .      S
C1147 C1146 1.476 1_565  S
C1147 H1149 1.104 1_565  S
C1147 H1150 1.085 .      S
C1147 H1151 1.084 .      S
C1150 H1152 1.073 .      S
C1151 H1153 1.078 .      S
C1152 C1155 1.468 1_455  S
C1153 H1154 1.073 .      S
C1155 C1152 1.468 1_655  S
C1155 O210  1.345 .      S
O210  H1155 0.966 .      S
H1149 C1147 1.104 1_545  S
C1156 C1157 1.489 .      S
C1156 H1156 1.073 .      S
C1156 H1157 1.096 .      S
C1156 H1158 1.100 .      S
C1157 C1158 1.465 .      S
C1157 C1159 1.412 .      S
C1157 H1159 1.063 .      S
C1158 H1160 1.083 .      S
C1158 H1161 1.093 .      S
C1158 H1162 1.088 .      S
C1161 H1163 1.073 .      S
C1162 H1164 1.080 .      S
C1163 C1166 1.467 .      S
C1164 H1165 1.077 .      S
C1166 O212  1.343 .      S
O212  H1166 0.966 .      S
C1167 C1168 1.487 .      S
C1167 H1167 1.107 .      S
C1167 H1168 1.089 .      S
C1167 H1169 1.102 .      S
C1168 C1169 1.520 .      S
C1168 C1170 1.444 .      S
C1168 H1170 1.085 .      S
C1169 H1171 1.105 .      S
C1169 H1172 1.095 .      S
C1169 H1173 1.103 .      S
C1172 H1174 1.068 .      S
C1173 H1175 1.079 .      S
C1174 C1177 1.427 .      S
C1175 H1176 1.074 .      S
C1177 O214  1.326 .      S
O214  H1177 0.950 .      S
C1178 C1179 1.511 .      S
C1178 H1178 1.101 .      S
C1178 H1179 1.102 .      S
C1178 H1180 1.107 .      S
C1179 C1180 1.515 .      S
C1179 C1181 1.487 .      S
C1179 H1181 1.103 .      S
C1180 H1182 1.101 .      S
C1180 H1183 1.102 .      S
C1180 H1184 1.108 .      S
C1183 H1185 1.070 .      S
C1184 H1186 1.081 .      S
C1185 C1188 1.466 .      S
C1186 H1187 1.077 .      S
C1188 O216  1.343 .      S
O216  H1188 0.965 .      S
C1189 C1190 1.462 .      S
C1189 H1189 1.090 .      S
C1189 H1190 1.098 .      S
C1189 H1191 1.102 .      S
C1190 C1191 1.493 .      S
C1190 C1192 1.451 .      S
C1190 H1192 1.094 .      S
C1191 H1193 1.093 .      S
C1191 H1194 1.101 .      S
C1191 H1195 1.103 .      S
C1194 H1196 1.078 .      S
C1195 H1197 1.081 .      S
C1196 C1199 1.468 .      S
C1197 H1198 1.080 .      S
N218  Zn54  2.223 1_554  S
C1199 O218  1.346 .      S
O218  H1199 0.966 1_554  S
H1199 O218  0.966 1_556  S
C1200 C1201 1.514 .      S
C1200 H1200 1.097 .      S
C1200 H1201 1.100 .      S
C1200 H1202 1.096 .      S
C1201 C1202 1.466 .      S
C1201 C1203 1.488 .      S
C1201 H1203 1.109 .      S
C1202 H1204 1.094 .      S
C1202 H1205 1.084 .      S
C1202 H1206 1.085 .      S
C1205 H1207 1.045 .      S
C1206 H1208 1.081 .      S
C1207 C1210 1.469 .      S
C1208 H1209 1.056 .      S
C1210 O220  1.346 .      S
O220  H1210 0.965 .      S
C1211 C1212 1.477 .      S
C1211 H1211 1.067 .      S
C1211 H1212 1.108 .      S
C1211 H1213 1.096 .      S
C1212 C1213 1.519 .      S
C1212 C1214 1.457 .      S
C1212 H1214 1.066 .      S
C1213 H1215 1.106 .      S
C1213 H1216 1.107 .      S
C1213 H1217 1.104 .      S
C1216 H1218 1.068 .      S
C1217 H1219 1.077 .      S
C1218 C1221 1.452 .      S
C1219 H1220 1.070 .      S
C1221 O222  1.340 .      S
O222  H1221 0.961 .      S
C1222 C1223 1.446 .      S
C1222 H1222 1.106 .      S
C1222 H1223 1.108 .      S
C1222 H1224 1.091 .      S
C1223 C1224 1.511 .      S
C1223 C1225 1.476 .      S
C1223 H1225 1.092 .      S
C1224 H1226 1.097 .      S
C1224 H1227 1.107 .      S
C1224 H1228 1.108 .      S
C1227 H1229 1.075 .      S
C1228 H1230 1.080 .      S
C1229 C1232 1.468 .      S
C1230 H1231 1.077 .      S
C1232 O224  1.347 .      S
O224  H1232 0.966 1_554  S
H1232 O224  0.966 1_556  S
C4    N1    1.425 .      A
C4    N2    1.380 .      A
N1    C5    1.346 .      A
C5    C6    1.359 .      A
C5    C10   1.351 .      A
C6    C7    1.373 .      A
C7    C8    1.381 .      A
C8    C9    1.368 .      A
C9    C10   1.359 .      A
C10   N2    1.337 .      A
C15   N3    1.398 .      A
C15   N4    1.384 .      A
N3    C16   1.357 .      A
C16   C17   1.370 .      A
C16   C21   1.363 .      A
C17   C18   1.382 .      A
C18   C19   1.389 .      A
C19   C20   1.384 .      A
C20   C21   1.372 .      A
C21   N4    1.338 .      A
C26   N5    1.404 .      A
C26   N6    1.392 .      A
N5    C27   1.336 .      A
C27   C28   1.357 .      A
C27   C32   1.349 .      A
C28   C29   1.361 .      A
C29   C30   1.368 .      A
C30   C31   1.364 .      A
C31   C32   1.358 .      A
C32   N6    1.338 .      A
C37   N7    1.390 .      A
C37   N8    1.394 .      A
N7    C38   1.355 .      A
C38   C39   1.364 .      A
C38   C43   1.354 .      A
C39   C40   1.376 .      A
C40   C41   1.381 .      A
C41   C42   1.368 .      A
C42   C43   1.362 .      A
C43   N8    1.333 .      A
C48   N9    1.366 .      A
C48   N10   1.351 .      A
N9    C49   1.351 .      A
C49   C50   1.374 .      A
C49   C54   1.356 .      A
C50   C51   1.377 .      A
C51   C52   1.384 .      A
C52   C53   1.382 .      A
C53   C54   1.368 .      A
C54   N10   1.351 .      A
C59   N11   1.388 .      A
C59   N12   1.418 .      A
N11   C60   1.350 .      A
C60   C61   1.373 .      A
C60   C65   1.361 .      A
C61   C62   1.372 .      A
C62   C63   1.375 .      A
C63   C64   1.360 .      A
C64   C65   1.343 .      A
C65   N12   1.329 .      A
C70   N13   1.386 .      A
C70   N14   1.375 .      A
N13   C71   1.354 .      A
C71   C72   1.372 .      A
C71   C76   1.379 .      A
C72   C73   1.379 .      A
C73   C74   1.389 .      A
C74   C75   1.391 .      A
C75   C76   1.374 .      A
C76   N14   1.356 .      A
C81   N15   1.409 .      A
C81   N16   1.368 .      A
N15   C82   1.352 .      A
C82   C83   1.366 .      A
C82   C87   1.382 .      A
C83   C84   1.385 .      A
C84   C85   1.395 .      A
C85   C86   1.387 .      A
C86   C87   1.367 .      A
C87   N16   1.348 .      A
C92   N17   1.410 .      A
C92   N18   1.403 .      A
N17   C93   1.329 .      A
C93   C94   1.353 .      A
C93   C98   1.367 .      A
C94   C95   1.355 .      A
C95   C96   1.369 .      A
C96   C97   1.378 .      A
C97   C98   1.360 .      A
C98   N18   1.341 .      A
C103  N19   1.401 .      A
C103  N20   1.390 .      A
N19   C104  1.353 .      A
C104  C105  1.373 .      A
C104  C109  1.372 .      A
C105  C106  1.383 .      A
C106  C107  1.392 .      A
C107  C108  1.385 .      A
C108  C109  1.372 .      A
C109  N20   1.346 .      A
C114  N21   1.400 .      A
C114  N22   1.413 .      A
N21   C115  1.347 .      A
C115  C116  1.369 .      A
C115  C120  1.379 .      A
C116  C117  1.380 .      A
C117  C118  1.392 .      A
C118  C119  1.391 .      A
C119  C120  1.376 .      A
C120  N22   1.355 .      A
C125  N23   1.426 .      A
C125  N24   1.387 .      A
N23   C126  1.336 .      A
C126  C127  1.365 .      A
C126  C131  1.348 .      A
C127  C128  1.369 .      A
C128  C129  1.377 .      A
C129  C130  1.351 .      A
C130  C131  1.334 .      A
C131  N24   1.329 .      A
C136  N25   1.390 .      A
C136  N26   1.385 .      A
N25   C137  1.335 .      A
C137  C138  1.361 .      A
C137  C142  1.365 .      A
C138  C139  1.380 .      A
C139  C140  1.390 .      A
C140  C141  1.388 .      A
C141  C142  1.371 .      A
C142  N26   1.360 .      A
C147  N27   1.422 1_545  A
C147  N28   1.386 .      A
N27   C147  1.422 1_565  A
N27   C148  1.355 1_565  A
C148  N27   1.355 1_545  A
C148  C149  1.377 .      A
C148  C153  1.379 .      A
C149  C150  1.378 .      A
C150  C151  1.387 .      A
C151  C152  1.387 .      A
C152  C153  1.376 .      A
C153  N28   1.357 .      A
C158  N29   1.384 .      A
C158  N30   1.378 .      A
N29   C159  1.335 .      A
C159  C160  1.365 .      A
C159  C164  1.358 .      A
C160  C161  1.377 .      A
C161  C162  1.384 .      A
C162  C163  1.385 .      A
C163  C164  1.370 .      A
C164  N30   1.356 .      A
C169  N31   1.426 .      A
C169  N32   1.389 .      A
N31   C170  1.335 .      A
C170  C171  1.339 .      A
C170  C175  1.354 .      A
C171  C172  1.373 .      A
C172  C173  1.384 .      A
C173  C174  1.380 .      A
C174  C175  1.362 .      A
C175  N32   1.343 .      A
C180  N33   1.404 .      A
C180  N34   1.398 .      A
N33   C181  1.348 .      A
C181  C182  1.366 .      A
C181  C186  1.370 .      A
C182  C183  1.385 1_565  A
C183  C182  1.385 1_545  A
C183  C184  1.395 .      A
C184  C185  1.385 1_545  A
C185  C184  1.385 1_565  A
C185  C186  1.366 .      A
C186  N34   1.346 .      A
C191  N35   1.394 1_565  A
C191  N36   1.387 .      A
N35   C191  1.394 1_545  A
N35   C192  1.362 .      A
C192  C193  1.367 .      A
C192  C197  1.377 .      A
C193  C194  1.379 .      A
C194  C195  1.385 .      A
C195  C196  1.384 .      A
C196  C197  1.375 .      A
C197  N36   1.345 1_545  A
N36   C197  1.345 1_565  A
C202  N37   1.403 .      A
C202  N38   1.402 .      A
N37   C203  1.344 .      A
C203  C204  1.369 .      A
C203  C208  1.372 .      A
C204  C205  1.376 .      A
C205  C206  1.385 .      A
C206  C207  1.387 .      A
C207  C208  1.374 .      A
C208  N38   1.361 .      A
C213  N39   1.415 .      A
C213  N40   1.398 .      A
N39   C214  1.351 .      A
C214  C215  1.367 .      A
C214  C219  1.370 .      A
C215  C216  1.381 .      A
C216  C217  1.391 .      A
C217  C218  1.388 .      A
C218  C219  1.369 .      A
C219  N40   1.351 .      A
C224  N41   1.407 .      A
C224  N42   1.393 .      A
N41   C225  1.368 .      A
C225  C226  1.378 .      A
C225  C230  1.359 .      A
C226  C227  1.378 .      A
C227  C228  1.380 .      A
C228  C229  1.350 .      A
C229  C230  1.350 .      A
C230  N42   1.315 .      A
C235  N43   1.407 .      A
C235  N44   1.397 .      A
N43   C236  1.341 .      A
C236  C237  1.368 .      A
C236  C241  1.377 .      A
C237  C238  1.377 .      A
C238  C239  1.385 .      A
C239  C240  1.386 .      A
C240  C241  1.392 .      A
C241  N44   1.372 .      A
C246  N45   1.406 .      A
C246  N46   1.396 .      A
N45   C247  1.340 .      A
C247  C248  1.363 .      A
C247  C252  1.375 .      A
C248  C249  1.373 .      A
C249  C250  1.388 .      A
C250  C251  1.392 .      A
C251  C252  1.377 .      A
C252  N46   1.358 .      A
C257  N47   1.420 .      A
C257  N48   1.407 .      A
N47   C258  1.344 .      A
C258  C259  1.367 .      A
C258  C263  1.374 .      A
C259  C260  1.377 .      A
C260  C261  1.389 .      A
C261  C262  1.395 .      A
C262  C263  1.368 .      A
C263  N48   1.355 .      A
C268  N49   1.396 .      A
C268  N50   1.394 .      A
N49   C269  1.348 .      A
C269  C270  1.356 .      A
C269  C274  1.346 .      A
C270  C271  1.356 .      A
C271  C272  1.353 .      A
C272  C273  1.364 .      A
C273  C274  1.364 .      A
C274  N50   1.336 .      A
C279  N51   1.413 .      A
C279  N52   1.386 .      A
N51   C280  1.353 .      A
C280  C281  1.371 .      A
C280  C285  1.363 .      A
C281  C282  1.380 .      A
C282  C283  1.389 .      A
C283  C284  1.387 .      A
C284  C285  1.368 .      A
C285  N52   1.343 .      A
C290  N53   1.404 .      A
C290  N54   1.399 .      A
N53   C291  1.350 .      A
C291  C292  1.370 .      A
C291  C296  1.380 .      A
C292  C293  1.371 .      A
C293  C294  1.375 .      A
C294  C295  1.386 .      A
C295  C296  1.380 .      A
C296  N54   1.369 .      A
C301  N55   1.395 .      A
C301  N56   1.376 .      A
N55   C302  1.361 .      A
C302  C303  1.374 .      A
C302  C307  1.391 .      A
C303  C304  1.385 .      A
C304  C305  1.394 .      A
C305  C306  1.386 .      A
C306  C307  1.372 .      A
C307  N56   1.352 .      A
C312  N57   1.392 .      A
C312  N58   1.398 .      A
N57   C313  1.342 .      A
C313  C314  1.366 .      A
C313  C318  1.359 .      A
C314  C315  1.370 .      A
C315  C316  1.380 .      A
C316  C317  1.389 .      A
C317  C318  1.374 .      A
C318  N58   1.357 .      A
C323  N59   1.419 .      A
C323  N60   1.403 .      A
N59   C324  1.341 .      A
C324  C325  1.343 .      A
C324  C329  1.356 .      A
C325  C326  1.381 .      A
C326  C327  1.379 .      A
C327  C328  1.382 .      A
C328  C329  1.374 .      A
C329  N60   1.336 .      A
C334  N61   1.393 .      A
C334  N62   1.401 .      A
N61   C335  1.339 .      A
C335  C336  1.367 .      A
C335  C340  1.370 .      A
C336  C337  1.378 .      A
C337  C338  1.392 .      A
C338  C339  1.394 .      A
C339  C340  1.374 .      A
C340  N62   1.356 .      A
C345  N63   1.395 .      A
C345  N64   1.386 .      A
N63   C346  1.352 .      A
C346  C347  1.360 .      A
C346  C351  1.367 .      A
C347  C348  1.382 .      A
C348  C349  1.390 .      A
C349  C350  1.385 .      A
C350  C351  1.376 .      A
C351  N64   1.342 .      A
C356  N65   1.400 .      A
C356  N66   1.406 .      A
N65   C357  1.348 .      A
C357  C358  1.368 .      A
C357  C362  1.378 .      A
C358  C359  1.373 .      A
C359  C360  1.382 .      A
C360  C361  1.390 .      A
C361  C362  1.376 .      A
C362  N66   1.358 .      A
C367  N67   1.414 1_655  A
C367  N68   1.406 .      A
N67   C367  1.414 1_455  A
N67   C368  1.348 1_455  A
C368  N67   1.348 1_655  A
C368  C369  1.364 .      A
C368  C373  1.378 .      A
C369  C370  1.383 .      A
C370  C371  1.393 .      A
C371  C372  1.389 .      A
C372  C373  1.372 .      A
C373  N68   1.354 .      A
C378  N69   1.403 .      A
C378  N70   1.401 .      A
N69   C379  1.321 .      A
C379  C380  1.333 .      A
C379  C384  1.353 .      A
C380  C381  1.360 .      A
C381  C382  1.360 .      A
C382  C383  1.378 .      A
C383  C384  1.347 .      A
C384  N70   1.338 .      A
C389  N71   1.397 .      A
C389  N72   1.423 .      A
N71   C390  1.340 .      A
C390  C391  1.356 .      A
C390  C395  1.356 .      A
C391  C392  1.339 .      A
C392  C393  1.354 .      A
C393  C394  1.369 .      A
C394  C395  1.367 .      A
C395  N72   1.338 .      A
C400  N73   1.380 .      A
C400  N74   1.371 .      A
N73   C401  1.354 .      A
C401  C402  1.381 .      A
C401  C406  1.364 .      A
C402  C403  1.379 .      A
C403  C404  1.387 .      A
C404  C405  1.386 .      A
C405  C406  1.364 .      A
C406  N74   1.355 .      A
C411  N75   1.382 .      A
C411  N76   1.401 .      A
N75   C412  1.352 .      A
C412  C413  1.369 .      A
C412  C417  1.363 .      A
C413  C414  1.381 .      A
C414  C415  1.384 .      A
C415  C416  1.383 .      A
C416  C417  1.374 .      A
C417  N76   1.343 .      A
C422  N77   1.377 .      A
C422  N78   1.387 .      A
N77   C423  1.344 .      A
C423  C424  1.368 .      A
C423  C428  1.353 .      A
C424  C425  1.361 .      A
C425  C426  1.365 .      A
C426  C427  1.382 .      A
C427  C428  1.391 .      A
C428  N78   1.366 .      A
C433  N79   1.399 .      A
C433  N80   1.368 .      A
N79   C434  1.341 .      A
C434  C435  1.363 .      A
C434  C439  1.352 .      A
C435  C436  1.371 .      A
C436  C437  1.369 .      A
C437  C438  1.317 .      A
C438  C439  1.294 .      A
C439  N80   1.310 .      A
C444  N81   1.417 .      A
C444  N82   1.372 .      A
N81   C445  1.350 .      A
C445  C446  1.348 .      A
C445  C450  1.331 .      A
C446  C447  1.398 .      A
C447  C448  1.361 .      A
C448  C449  1.353 .      A
C449  C450  1.346 .      A
C450  N82   1.312 .      A
C455  N83   1.387 .      A
C455  N84   1.381 .      A
N83   C456  1.335 .      A
C456  C457  1.366 .      A
C456  C461  1.357 .      A
C457  C458  1.380 .      A
C458  C459  1.391 .      A
C459  C460  1.385 .      A
C460  C461  1.375 .      A
C461  N84   1.356 .      A
C466  N85   1.411 .      A
C466  N86   1.384 .      A
N85   C467  1.364 .      A
C467  C468  1.365 .      A
C467  C472  1.357 .      A
C468  C469  1.380 .      A
C469  C470  1.359 .      A
C470  C471  1.347 .      A
C471  C472  1.364 .      A
C472  N86   1.318 .      A
C477  N87   1.401 .      A
C477  N88   1.381 .      A
N87   C478  1.343 .      A
C478  C479  1.350 .      A
C478  C483  1.370 .      A
C479  C480  1.371 .      A
C480  C481  1.372 .      A
C481  C482  1.363 .      A
C482  C483  1.356 .      A
C483  N88   1.330 .      A
C488  N89   1.400 .      A
C488  N90   1.388 .      A
N89   C489  1.362 .      A
C489  C490  1.358 .      A
C489  C494  1.353 .      A
C490  C491  1.381 .      A
C491  C492  1.378 .      A
C492  C493  1.382 .      A
C493  C494  1.390 .      A
C494  N90   1.334 .      A
C499  N91   1.404 .      A
C499  N92   1.384 .      A
N91   C500  1.311 .      A
C500  C501  1.356 .      A
C500  C505  1.333 .      A
C501  C502  1.382 .      A
C502  C503  1.379 .      A
C503  C504  1.366 .      A
C504  C505  1.321 .      A
C505  N92   1.345 .      A
C510  N93   1.411 .      A
C510  N94   1.409 .      A
N93   C511  1.356 .      A
C511  C512  1.366 .      A
C511  C516  1.360 .      A
C512  C513  1.374 .      A
C513  C514  1.374 .      A
C514  C515  1.372 .      A
C515  C516  1.372 .      A
C516  N94   1.341 .      A
C521  N95   1.407 .      A
C521  N96   1.392 .      A
N95   C522  1.352 .      A
C522  C523  1.365 .      A
C522  C527  1.361 .      A
C523  C524  1.380 1_565  A
C524  C523  1.380 1_545  A
C524  C525  1.385 1_545  A
C525  C524  1.385 1_565  A
C525  C526  1.385 .      A
C526  C527  1.367 .      A
C527  N96   1.342 .      A
C532  N97   1.411 .      A
C532  N98   1.372 .      A
N97   C533  1.359 .      A
C533  C534  1.360 .      A
C533  C538  1.367 .      A
C534  C535  1.387 1_565  A
C535  C534  1.387 1_545  A
C535  C536  1.387 .      A
C536  C537  1.380 1_545  A
C537  C536  1.380 1_565  A
C537  C538  1.366 .      A
C538  N98   1.328 .      A
C543  N99   1.418 1_545  A
C543  N100  1.388 .      A
N99   C543  1.418 1_565  A
N99   C544  1.312 .      A
C544  C545  1.358 .      A
C544  C549  1.345 .      A
C545  C546  1.364 .      A
C546  C547  1.374 .      A
C547  C548  1.349 .      A
C548  C549  1.310 .      A
C549  N100  1.325 1_565  A
N100  C549  1.325 1_545  A
C554  N101  1.394 .      A
C554  N102  1.421 .      A
N101  C555  1.320 .      A
C555  C556  1.355 .      A
C555  C560  1.353 .      A
C556  C557  1.367 .      A
C557  C558  1.379 .      A
C558  C559  1.373 .      A
C559  C560  1.348 .      A
C560  N102  1.353 .      A
C565  N103  1.382 .      A
C565  N104  1.413 .      A
N103  C566  1.314 .      A
C566  C567  1.341 1_554  A
C566  C571  1.334 .      A
C567  C566  1.341 1_556  A
C567  C568  1.364 .      A
C568  C569  1.370 .      A
C569  C570  1.355 1_556  A
C570  C569  1.355 1_554  A
C570  C571  1.325 .      A
C571  N104  1.342 .      A
C576  N105  1.409 .      A
C576  N106  1.393 .      A
N105  C577  1.332 .      A
C577  C578  1.344 .      A
C577  C582  1.346 .      A
C578  C579  1.358 .      A
C579  C580  1.360 .      A
C580  C581  1.383 .      A
C581  C582  1.379 .      A
C582  N106  1.351 .      A
C587  N107  1.388 .      A
C587  N108  1.398 .      A
N107  C588  1.354 .      A
C588  C589  1.373 .      A
C588  C593  1.373 .      A
C589  C590  1.386 .      A
C590  C591  1.396 .      A
C591  C592  1.387 .      A
C592  C593  1.371 .      A
C593  N108  1.347 .      A
C598  N109  1.394 .      A
C598  N110  1.403 .      A
N109  C599  1.350 .      A
C599  C600  1.369 .      A
C599  C604  1.359 .      A
C600  C601  1.382 .      A
C601  C602  1.385 .      A
C602  C603  1.364 .      A
C603  C604  1.356 .      A
C604  N110  1.337 .      A
C609  N111  1.392 .      A
C609  N112  1.379 .      A
N111  C610  1.371 .      A
C610  C611  1.371 .      A
C610  C615  1.376 .      A
C611  C612  1.383 1_565  A
C612  C611  1.383 1_545  A
C612  C613  1.384 .      A
C613  C614  1.380 1_545  A
C614  C613  1.380 1_565  A
C614  C615  1.372 .      A
C615  N112  1.335 .      A
C620  N113  1.400 .      A
C620  N114  1.379 .      A
N113  C621  1.346 .      A
C621  C622  1.360 .      A
C621  C626  1.367 .      A
C622  C623  1.377 .      A
C623  C624  1.387 .      A
C624  C625  1.344 .      A
C625  C626  1.349 .      A
C626  N114  1.325 .      A
C631  N115  1.411 1_545  A
C631  N116  1.422 .      A
N115  C631  1.411 1_565  A
N115  C632  1.327 1_565  A
C632  N115  1.327 1_545  A
C632  C633  1.366 .      A
C632  C637  1.357 .      A
C633  C634  1.365 .      A
C634  C635  1.378 .      A
C635  C636  1.393 .      A
C636  C637  1.365 .      A
C637  N116  1.366 .      A
C642  N117  1.406 .      A
C642  N118  1.407 .      A
N117  C643  1.325 .      A
C643  C644  1.360 .      A
C643  C648  1.366 .      A
C644  C645  1.360 .      A
C645  C646  1.372 .      A
C646  C647  1.394 1_455  A
C647  C646  1.394 1_655  A
C647  C648  1.378 1_655  A
C648  C647  1.378 1_455  A
C648  N118  1.376 .      A
C653  N119  1.394 .      A
C653  N120  1.428 1_545  A
N119  C654  1.340 .      A
C654  C655  1.375 .      A
C654  C659  1.371 .      A
C655  C656  1.373 .      A
C656  C657  1.383 1_655  A
C657  C656  1.383 1_455  A
C657  C658  1.391 1_455  A
C658  C657  1.391 1_655  A
C658  C659  1.363 .      A
C659  N120  1.365 1_545  A
N120  C653  1.428 1_565  A
N120  C659  1.365 1_565  A
C664  N121  1.400 .      A
C664  N122  1.394 .      A
N121  C665  1.339 .      A
C665  C666  1.359 .      A
C665  C670  1.362 .      A
C666  C667  1.363 .      A
C667  C668  1.369 .      A
C668  C669  1.395 .      A
C669  C670  1.383 .      A
C670  N122  1.365 .      A
C675  N123  1.385 .      A
C675  N124  1.387 1_455  A
N123  C676  1.360 .      A
C676  C677  1.374 .      A
C676  C681  1.367 1_455  A
C677  C678  1.381 1_455  A
C678  C677  1.381 1_655  A
C678  C679  1.390 .      A
C679  C680  1.388 .      A
C680  C681  1.372 .      A
C681  C676  1.367 1_655  A
C681  N124  1.349 .      A
N124  C675  1.387 1_655  A
C686  N125  1.385 1_455  A
C686  N126  1.385 1_565  A
N125  C686  1.385 1_655  A
N125  C687  1.342 .      A
C687  C688  1.367 .      A
C687  C692  1.370 1_565  A
C688  C689  1.380 1_565  A
C689  C688  1.380 1_545  A
C689  C690  1.390 .      A
C690  C691  1.387 .      A
C691  C692  1.372 .      A
C692  C687  1.370 1_545  A
C692  N126  1.357 1_655  A
N126  C686  1.385 1_545  A
N126  C692  1.357 1_455  A
C697  N127  1.380 .      A
C697  N128  1.397 .      A
N127  C698  1.331 .      A
C698  C699  1.354 .      A
C698  C703  1.356 .      A
C699  C700  1.357 .      A
C700  C701  1.374 .      A
C701  C702  1.375 .      A
C702  C703  1.362 .      A
C703  N128  1.344 .      A
C708  N129  1.385 .      A
C708  N130  1.380 .      A
N129  C709  1.358 .      A
C709  C710  1.366 .      A
C709  C714  1.365 .      A
C710  C711  1.380 .      A
C711  C712  1.385 .      A
C712  C713  1.383 .      A
C713  C714  1.373 .      A
C714  N130  1.339 .      A
C719  N131  1.401 .      A
C719  N132  1.395 .      A
N131  C720  1.353 .      A
C720  C721  1.372 .      A
C720  C725  1.363 .      A
C721  C722  1.373 .      A
C722  C723  1.377 .      A
C723  C724  1.373 .      A
C724  C725  1.363 .      A
C725  N132  1.338 .      A
C730  N133  1.401 1_455  A
C730  N134  1.403 .      A
N133  C730  1.401 1_655  A
N133  C731  1.335 1_655  A
C731  N133  1.335 1_455  A
C731  C732  1.349 .      A
C731  C736  1.367 .      A
C732  C733  1.370 .      A
C733  C734  1.362 .      A
C734  C735  1.373 .      A
C735  C736  1.353 .      A
C736  N134  1.341 .      A
C741  N135  1.403 .      A
C741  N136  1.397 .      A
N135  C742  1.347 .      A
C742  C743  1.344 .      A
C742  C747  1.354 .      A
C743  C744  1.367 .      A
C744  C745  1.372 .      A
C745  C746  1.379 .      A
C746  C747  1.366 .      A
C747  N136  1.338 .      A
C752  N137  1.406 1_455  A
C752  N138  1.379 .      A
N137  C752  1.406 1_655  A
N137  C753  1.361 .      A
C753  C754  1.370 .      A
C753  C758  1.372 1_655  A
C754  C755  1.381 .      A
C755  C756  1.394 1_655  A
C756  C755  1.394 1_455  A
C756  C757  1.389 .      A
C757  C758  1.372 .      A
C758  C753  1.372 1_455  A
C758  N138  1.341 .      A
C763  N139  1.404 .      A
C763  N140  1.397 .      A
N139  C764  1.333 .      A
C764  C765  1.372 .      A
C764  C769  1.357 .      A
C765  C766  1.365 .      A
C766  C767  1.375 .      A
C767  C768  1.392 .      A
C768  C769  1.373 .      A
C769  N140  1.364 .      A
C774  N141  1.412 .      A
C774  N142  1.398 .      A
N141  C775  1.351 .      A
C775  C776  1.368 .      A
C775  C780  1.372 .      A
C776  C777  1.391 .      A
C777  C778  1.389 .      A
C778  C779  1.380 .      A
C779  C780  1.375 .      A
C780  N142  1.342 .      A
C785  N143  1.376 .      A
C785  N144  1.356 .      A
N143  C786  1.346 .      A
C786  C787  1.372 .      A
C786  C791  1.375 .      A
C787  C788  1.381 .      A
C788  C789  1.392 .      A
C789  C790  1.387 .      A
C790  C791  1.372 .      A
C791  N144  1.357 .      A
C796  N145  1.390 .      A
C796  N146  1.369 .      A
N145  C797  1.355 .      A
C797  C798  1.372 1_455  A
C797  C802  1.366 .      A
C798  C797  1.372 1_655  A
C798  C799  1.386 .      A
C799  C800  1.393 .      A
C800  C801  1.385 .      A
C801  C802  1.373 1_655  A
C802  C801  1.373 1_455  A
C802  N146  1.345 .      A
C807  N147  1.399 .      A
C807  N148  1.397 .      A
N147  C808  1.347 .      A
C808  C809  1.358 .      A
C808  C813  1.368 .      A
C809  C810  1.378 .      A
C810  C811  1.390 .      A
C811  C812  1.389 .      A
C812  C813  1.374 .      A
C813  N148  1.347 .      A
C818  N149  1.376 .      A
C818  N150  1.377 .      A
N149  C819  1.360 .      A
C819  C820  1.365 .      A
C819  C824  1.364 .      A
C820  C821  1.382 .      A
C821  C822  1.380 .      A
C822  C823  1.371 .      A
C823  C824  1.366 .      A
C824  N150  1.328 .      A
C829  N151  1.391 1_455  A
C829  N152  1.377 .      A
N151  C829  1.391 1_655  A
N151  C830  1.349 1_655  A
C830  N151  1.349 1_455  A
C830  C831  1.368 1_455  A
C830  C835  1.369 .      A
C831  C830  1.368 1_655  A
C831  C832  1.370 .      A
C832  C833  1.383 1_665  A
C833  C832  1.383 1_445  A
C833  C834  1.393 1_545  A
C834  C833  1.393 1_565  A
C834  C835  1.379 .      A
C835  N152  1.351 .      A
C840  N153  1.401 .      A
C840  N154  1.382 1_565  A
N153  C841  1.343 1_565  A
C841  N153  1.343 1_545  A
C841  C842  1.364 .      A
C841  C846  1.359 .      A
C842  C843  1.379 .      A
C843  C844  1.388 .      A
C844  C845  1.389 .      A
C845  C846  1.372 .      A
C846  N154  1.353 .      A
N154  C840  1.382 1_545  A
C851  N155  1.406 .      A
C851  N156  1.410 .      A
N155  C852  1.345 .      A
C852  C853  1.359 .      A
C852  C857  1.362 .      A
C853  C854  1.378 .      A
C854  C855  1.382 .      A
C855  C856  1.385 .      A
C856  C857  1.370 .      A
C857  N156  1.346 .      A
C862  N157  1.407 .      A
C862  N158  1.369 .      A
N157  C863  1.357 .      A
C863  C864  1.375 .      A
C863  C868  1.373 .      A
C864  C865  1.382 .      A
C865  C866  1.389 .      A
C866  C867  1.384 .      A
C867  C868  1.376 .      A
C868  N158  1.350 .      A
C873  N159  1.406 .      A
C873  N160  1.371 .      A
N159  C874  1.355 .      A
C874  C875  1.371 .      A
C874  C879  1.367 .      A
C875  C876  1.382 .      A
C876  C877  1.392 .      A
C877  C878  1.385 .      A
C878  C879  1.368 .      A
C879  N160  1.342 .      A
C884  N161  1.389 .      A
C884  N162  1.395 .      A
N161  C885  1.356 .      A
C885  C886  1.364 1_554  A
C885  C890  1.356 .      A
C886  C885  1.364 1_556  A
C886  C887  1.378 .      A
C887  C888  1.386 .      A
C888  C889  1.384 1_556  A
C889  C888  1.384 1_554  A
C889  C890  1.377 .      A
C890  N162  1.340 .      A
C895  N163  1.396 .      A
C895  N164  1.407 .      A
N163  C896  1.342 .      A
C896  C897  1.362 .      A
C896  C901  1.370 .      A
C897  C898  1.372 .      A
C898  C899  1.381 .      A
C899  C900  1.390 .      A
C900  C901  1.376 .      A
C901  N164  1.362 .      A
C906  N165  1.414 1_554  A
C906  N166  1.382 .      A
N165  C906  1.414 1_556  A
N165  C907  1.361 .      A
C907  C908  1.370 .      A
C907  C912  1.374 .      A
C908  C909  1.381 .      A
C909  C910  1.389 .      A
C910  C911  1.381 .      A
C911  C912  1.369 .      A
C912  N166  1.339 1_556  A
N166  C912  1.339 1_554  A
C917  N167  1.397 .      A
C917  N168  1.406 .      A
N167  C918  1.355 .      A
C918  C919  1.372 1_554  A
C918  C923  1.365 1_554  A
C919  C918  1.372 1_556  A
C919  C920  1.382 .      A
C920  C921  1.388 .      A
C921  C922  1.381 .      A
C922  C923  1.367 .      A
C923  C918  1.365 1_556  A
C923  N168  1.341 1_556  A
N168  C923  1.341 1_554  A
C928  N169  1.392 1_545  A
C928  N170  1.384 .      A
N169  C928  1.392 1_565  A
N169  C929  1.355 1_554  A
C929  N169  1.355 1_556  A
C929  C930  1.374 .      A
C929  C934  1.355 1_566  A
C930  C931  1.374 .      A
C931  C932  1.378 1_565  A
C932  C931  1.378 1_545  A
C932  C933  1.381 .      A
C933  C934  1.374 1_556  A
C934  C929  1.355 1_544  A
C934  C933  1.374 1_554  A
C934  N170  1.354 .      A
C939  N171  1.398 .      A
C939  N172  1.400 .      A
N171  C940  1.338 .      A
C940  C941  1.358 .      A
C940  C945  1.366 .      A
C941  C942  1.370 1_565  A
C942  C941  1.370 1_545  A
C942  C943  1.379 .      A
C943  C944  1.392 1_545  A
C944  C943  1.392 1_565  A
C944  C945  1.388 .      A
C945  N172  1.362 .      A
C950  N173  1.393 .      A
C950  N174  1.372 .      A
N173  C951  1.337 .      A
C951  C952  1.369 .      A
C951  C956  1.363 .      A
C952  C953  1.377 .      A
C953  C954  1.383 .      A
C954  C955  1.388 .      A
C955  C956  1.382 .      A
C956  N174  1.360 .      A
C961  N175  1.394 .      A
C961  N176  1.400 .      A
N175  C962  1.325 .      A
C962  C963  1.349 1_554  A
C962  C967  1.356 .      A
C963  C962  1.349 1_556  A
C963  C964  1.360 .      A
C964  C965  1.359 .      A
C965  C966  1.364 .      A
C966  C967  1.351 1_556  A
C967  C966  1.351 1_554  A
C967  N176  1.346 .      A
C972  N177  1.384 .      A
C972  N178  1.392 .      A
N177  C973  1.327 .      A
C973  C974  1.354 .      A
C973  C978  1.353 .      A
C974  C975  1.339 .      A
C975  C976  1.364 .      A
C976  C977  1.393 .      A
C977  C978  1.371 .      A
C978  N178  1.355 .      A
C983  N179  1.415 .      A
C983  N180  1.398 .      A
N179  C984  1.342 .      A
C984  C985  1.358 1_655  A
C984  C989  1.356 .      A
C985  C984  1.358 1_455  A
C985  C986  1.388 .      A
C986  C987  1.376 .      A
C987  C988  1.341 1_455  A
C988  C987  1.341 1_655  A
C988  C989  1.333 .      A
C989  N180  1.316 .      A
C994  N181  1.427 .      A
C994  N182  1.388 .      A
N181  C995  1.346 .      A
C995  C996  1.364 .      A
C995  C1000 1.373 .      A
C996  C997  1.380 1_565  A
C997  C996  1.380 1_545  A
C997  C998  1.388 .      A
C998  C999  1.386 1_545  A
C999  C998  1.386 1_565  A
C999  C1000 1.378 .      A
C1000 N182  1.360 .      A
C1005 N183  1.390 .      A
C1005 N184  1.415 .      A
N183  C1006 1.345 .      A
C1006 C1007 1.368 .      A
C1006 C1011 1.378 .      A
C1007 C1008 1.371 .      A
C1008 C1009 1.381 .      A
C1009 C1010 1.392 .      A
C1010 C1011 1.373 .      A
C1011 N184  1.362 .      A
C1016 N185  1.390 .      A
C1016 N186  1.374 .      A
N185  C1017 1.348 1_554  A
C1017 N185  1.348 1_556  A
C1017 C1018 1.355 1_455  A
C1017 C1022 1.354 .      A
C1018 C1017 1.355 1_655  A
C1018 C1019 1.372 1_655  A
C1019 C1018 1.372 1_455  A
C1019 C1020 1.383 .      A
C1020 C1021 1.389 .      A
C1021 C1022 1.371 .      A
C1022 N186  1.337 1_556  A
N186  C1022 1.337 1_554  A
C1027 N187  1.385 .      A
C1027 N188  1.382 .      A
N187  C1028 1.349 .      A
C1028 C1029 1.369 .      A
C1028 C1033 1.359 .      A
C1029 C1030 1.363 .      A
C1030 C1031 1.356 .      A
C1031 C1032 1.362 .      A
C1032 C1033 1.369 .      A
C1033 N188  1.354 .      A
C1038 N189  1.387 1_554  A
C1038 N190  1.405 1_554  A
N189  C1038 1.387 1_556  A
N189  C1039 1.350 .      A
C1039 C1040 1.364 .      A
C1039 C1044 1.374 .      A
C1040 C1041 1.382 .      A
C1041 C1042 1.391 .      A
C1042 C1043 1.385 .      A
C1043 C1044 1.370 .      A
C1044 N190  1.349 .      A
N190  C1038 1.405 1_556  A
C1049 N191  1.385 .      A
C1049 N192  1.390 .      A
N191  C1050 1.356 .      A
C1050 C1051 1.372 .      A
C1050 C1055 1.373 .      A
C1051 C1052 1.385 .      A
C1052 C1053 1.393 1_554  A
C1053 C1052 1.393 1_556  A
C1053 C1054 1.385 .      A
C1054 C1055 1.370 1_556  A
C1055 C1054 1.370 1_554  A
C1055 N192  1.343 .      A
C1060 N193  1.367 .      A
C1060 N194  1.384 .      A
N193  C1061 1.347 .      A
C1061 C1062 1.373 .      A
C1061 C1066 1.368 .      A
C1062 C1063 1.374 .      A
C1063 C1064 1.386 .      A
C1064 C1065 1.391 .      A
C1065 C1066 1.372 .      A
C1066 N194  1.356 .      A
C1071 N195  1.391 .      A
C1071 N196  1.397 .      A
N195  C1072 1.347 .      A
C1072 C1073 1.377 .      A
C1072 C1077 1.363 .      A
C1073 C1074 1.376 .      A
C1074 C1075 1.385 .      A
C1075 C1076 1.388 .      A
C1076 C1077 1.374 .      A
C1077 N196  1.361 .      A
C1082 N197  1.395 .      A
C1082 N198  1.402 .      A
N197  C1083 1.350 .      A
C1083 C1084 1.362 .      A
C1083 C1088 1.375 .      A
C1084 C1085 1.373 .      A
C1085 C1086 1.384 .      A
C1086 C1087 1.392 .      A
C1087 C1088 1.375 .      A
C1088 N198  1.348 .      A
C1093 N199  1.400 .      A
C1093 N200  1.384 .      A
N199  C1094 1.350 .      A
C1094 C1095 1.363 .      A
C1094 C1099 1.374 .      A
C1095 C1096 1.385 .      A
C1096 C1097 1.396 .      A
C1097 C1098 1.388 .      A
C1098 C1099 1.368 .      A
C1099 N200  1.347 .      A
C1104 N201  1.425 .      A
C1104 N202  1.388 .      A
N201  C1105 1.350 .      A
C1105 C1106 1.360 .      A
C1105 C1110 1.358 .      A
C1106 C1107 1.385 1_545  A
C1107 C1106 1.385 1_565  A
C1107 C1108 1.399 .      A
C1108 C1109 1.352 1_565  A
C1109 C1108 1.352 1_545  A
C1109 C1110 1.338 .      A
C1110 N202  1.312 .      A
C1115 N203  1.408 .      A
C1115 N204  1.381 .      A
N203  C1116 1.337 .      A
C1116 C1117 1.364 .      A
C1116 C1121 1.372 .      A
C1117 C1118 1.376 .      A
C1118 C1119 1.385 .      A
C1119 C1120 1.386 .      A
C1120 C1121 1.370 .      A
C1121 N204  1.364 .      A
C1126 N205  1.396 .      A
C1126 N206  1.401 .      A
N205  C1127 1.361 .      A
C1127 C1128 1.375 .      A
C1127 C1132 1.370 .      A
C1128 C1129 1.373 .      A
C1129 C1130 1.378 .      A
C1130 C1131 1.383 .      A
C1131 C1132 1.369 .      A
C1132 N206  1.353 .      A
C1137 N207  1.382 .      A
C1137 N208  1.369 .      A
N207  C1138 1.347 .      A
C1138 C1139 1.365 1_554  A
C1138 C1143 1.373 .      A
C1139 C1138 1.365 1_556  A
C1139 C1140 1.377 .      A
C1140 C1141 1.392 .      A
C1141 C1142 1.397 .      A
C1142 C1143 1.373 1_556  A
C1143 C1142 1.373 1_554  A
C1143 N208  1.356 .      A
C1148 N209  1.401 .      A
C1148 N210  1.397 .      A
N209  C1149 1.344 .      A
C1149 C1150 1.366 .      A
C1149 C1154 1.367 .      A
C1150 C1151 1.383 .      A
C1151 C1152 1.392 .      A
C1152 C1153 1.387 .      A
C1153 C1154 1.365 .      A
C1154 N210  1.350 .      A
C1159 N211  1.374 .      A
C1159 N212  1.375 .      A
N211  C1160 1.350 .      A
C1160 C1161 1.370 .      A
C1160 C1165 1.371 .      A
C1161 C1162 1.377 .      A
C1162 C1163 1.388 .      A
C1163 C1164 1.393 .      A
C1164 C1165 1.375 .      A
C1165 N212  1.353 .      A
C1170 N213  1.392 .      A
C1170 N214  1.381 .      A
N213  C1171 1.328 .      A
C1171 C1172 1.367 .      A
C1171 C1176 1.364 .      A
C1172 C1173 1.362 .      A
C1173 C1174 1.376 .      A
C1174 C1175 1.387 .      A
C1175 C1176 1.352 .      A
C1176 N214  1.354 .      A
C1181 N215  1.390 .      A
C1181 N216  1.388 .      A
N215  C1182 1.342 .      A
C1182 C1183 1.352 .      A
C1182 C1187 1.356 .      A
C1183 C1184 1.380 .      A
C1184 C1185 1.393 .      A
C1185 C1186 1.392 .      A
C1186 C1187 1.371 .      A
C1187 N216  1.343 .      A
C1192 N217  1.417 .      A
C1192 N218  1.380 .      A
N217  C1193 1.349 .      A
C1193 C1194 1.371 .      A
C1193 C1198 1.372 .      A
C1194 C1195 1.384 .      A
C1195 C1196 1.395 .      A
C1196 C1197 1.388 .      A
C1197 C1198 1.375 .      A
C1198 N218  1.353 .      A
C1203 N219  1.370 .      A
C1203 N220  1.392 .      A
N219  C1204 1.346 .      A
C1204 C1205 1.364 .      A
C1204 C1209 1.354 .      A
C1205 C1206 1.373 .      A
C1206 C1207 1.376 .      A
C1207 C1208 1.383 .      A
C1208 C1209 1.378 .      A
C1209 N220  1.353 .      A
C1214 N221  1.396 .      A
C1214 N222  1.396 .      A
N221  C1215 1.340 .      A
C1215 C1216 1.371 1_545  A
C1215 C1220 1.363 .      A
C1216 C1215 1.371 1_565  A
C1216 C1217 1.366 .      A
C1217 C1218 1.384 .      A
C1218 C1219 1.379 1_565  A
C1219 C1218 1.379 1_545  A
C1219 C1220 1.369 .      A
C1220 N222  1.357 .      A
C1225 N223  1.404 .      A
C1225 N224  1.382 .      A
N223  C1226 1.349 .      A
C1226 C1227 1.373 .      A
C1226 C1231 1.366 .      A
C1227 C1228 1.383 .      A
C1228 C1229 1.391 .      A
C1229 C1230 1.386 .      A
C1230 C1231 1.379 .      A
C1231 N224  1.357 .      A
C11   O1    1.207 .      D
C22   O3    1.219 .      D
C33   O5    1.203 .      D
C44   O7    1.217 .      D
C55   O9    1.216 .      D
C66   O11   1.206 .      D
C77   O13   1.219 .      D
C88   O15   1.219 .      D
C99   O17   1.209 .      D
C110  O19   1.219 .      D
C121  O21   1.219 .      D
C132  O23   1.215 .      D
C143  O25   1.218 .      D
C154  O27   1.219 .      D
C165  O29   1.219 .      D
C176  O31   1.216 .      D
C187  O33   1.219 .      D
C198  O35   1.219 .      D
C209  O37   1.217 .      D
C220  O39   1.219 .      D
C231  O41   1.211 .      D
C242  O43   1.219 .      D
C253  O45   1.219 .      D
C264  O47   1.219 .      D
C275  O49   1.212 .      D
C286  O51   1.219 .      D
C297  O53   1.219 .      D
C308  O55   1.219 .      D
C319  O57   1.219 .      D
C330  O59   1.219 .      D
C341  O61   1.219 .      D
C352  O63   1.219 .      D
C363  O65   1.219 1_565  D
O65   C363  1.219 1_545  D
C374  O67   1.219 .      D
C385  O69   1.219 .      D
C396  O71   1.205 .      D
C407  O73   1.219 .      D
C418  O75   1.218 .      D
C429  O77   1.216 .      D
C440  O79   1.199 .      D
C451  O81   1.219 .      D
C462  O83   1.219 1_554  D
O83   C462  1.219 1_556  D
C473  O85   1.218 .      D
C484  O87   1.217 .      D
C495  O89   1.219 .      D
C506  O91   1.217 .      D
C517  O93   1.218 .      D
C528  O95   1.219 .      D
C539  O97   1.219 .      D
C550  O99   1.217 .      D
C561  O101  1.215 .      D
C572  O103  1.213 1_556  D
O103  C572  1.213 1_554  D
C583  O105  1.220 .      D
C594  O107  1.219 .      D
C605  O109  1.214 .      D
C616  O111  1.219 .      D
C627  O113  1.210 .      D
C638  O115  1.215 .      D
C649  O117  1.219 .      D
C660  O119  1.219 .      D
C671  O121  1.211 .      D
C682  O123  1.219 .      D
C693  O125  1.219 .      D
C704  O127  1.214 .      D
C715  O129  1.219 .      D
C726  O131  1.211 .      D
C737  O133  1.213 .      D
C748  O135  1.214 .      D
C759  O137  1.219 1_455  D
O137  C759  1.219 1_655  D
C770  O139  1.219 .      D
C781  O141  1.219 .      D
C792  O143  1.219 .      D
C803  O145  1.219 .      D
C814  O147  1.219 .      D
C825  O149  1.218 .      D
C836  O151  1.219 1_455  D
O151  C836  1.219 1_655  D
C847  O153  1.219 .      D
C858  O155  1.219 .      D
C869  O157  1.219 .      D
C880  O159  1.219 .      D
C891  O161  1.219 .      D
C902  O163  1.219 .      D
C913  O165  1.217 .      D
C924  O167  1.217 .      D
C935  O169  1.219 .      D
C946  O171  1.219 .      D
C957  O173  1.217 .      D
C968  O175  1.213 .      D
C979  O177  1.215 .      D
C990  O179  1.205 .      D
C1001 O181  1.219 .      D
C1012 O183  1.219 .      D
C1023 O185  1.215 .      D
C1034 O187  1.219 .      D
C1045 O189  1.219 .      D
C1056 O191  1.219 1_565  D
O191  C1056 1.219 1_545  D
C1067 O193  1.219 .      D
C1078 O195  1.219 .      D
C1089 O197  1.219 .      D
C1100 O199  1.219 .      D
C1111 O201  1.213 .      D
C1122 O203  1.219 .      D
C1133 O205  1.219 .      D
C1144 O207  1.219 .      D
C1155 O209  1.219 .      D
C1166 O211  1.219 .      D
C1177 O213  1.217 .      D
C1188 O215  1.219 .      D
C1199 O217  1.219 .      D
C1210 O219  1.219 .      D
C1221 O221  1.211 .      D
C1232 O223  1.219 1_554  D
O223  C1232 1.219 1_556  D
