data_str_m1_o12216_STW
_audit_creation_date              2015-10-01T06:26:13-0700
_symmetry_space_group_name_H-M    P1
_symmetry_Int_Tables_number       1
_space_group_crystal_system       triclinic
loop_
_symmetry_equiv_pos_as_xyz
  x,y,z
_cell_length_a                    24.6499084
_cell_length_b                    24.2175180
_cell_length_c                    62.8897429
_cell_angle_alpha                 90.9176593
_cell_angle_beta                  88.3035756
_cell_angle_gamma                 63.3553665
_cell_volume                      33523.0626406

loop_
_atom_site_label
_atom_site_type_symbol
_atom_site_description
_atom_site_fract_x
_atom_site_fract_y
_atom_site_fract_z
_atom_type_partial_charge
Zn1   Zn    Zn3+2 0.408866 0.455142 0.451365 0.000000
Zn2   Zn    Zn3+2 0.101450 0.500624 0.793865 0.000000
Zn3   Zn    Zn3+2 0.685953 0.701620 0.802746 0.000000
Zn4   Zn    Zn3+2 0.488598 0.865662 0.738216 0.000000
Zn5   Zn    Zn3+2 0.105265 0.544357 0.894551 0.000000
Zn6   Zn    Zn3+2 0.281879 0.282216 0.729787 0.000000
Zn7   Zn    Zn3+2 0.660349 0.268224 0.402223 0.000000
Zn8   Zn    Zn3+2 0.205082 0.433556 0.132766 0.000000
Zn9   Zn    Zn3+2 0.440998 0.858938 0.635331 0.000000
Zn10  Zn    Zn3+2 0.204661 0.064116 0.747548 0.000000
Zn11  Zn    Zn3+2 0.722663 0.849533 0.412942 0.000000
Zn12  Zn    Zn3+2 0.901305 0.458694 0.917530 0.000000
Zn13  Zn    Zn3+2 0.412231 0.261936 0.246102 0.000000
Zn14  Zn    Zn3+2 0.154788 0.882501 0.055679 0.000000
Zn15  Zn    Zn3+2 0.563750 0.085122 0.723770 0.000000
Zn16  Zn    Zn3+2 0.910990 0.817703 0.884173 0.000000
Zn17  Zn    Zn3+2 0.512958 0.533984 0.076117 0.000000
Zn18  Zn    Zn3+2 0.178115 0.489741 0.566719 0.000000
Zn19  Zn    Zn3+2 0.137980 0.452874 0.232709 0.000000
Zn20  Zn    Zn3+2 0.698142 0.737462 0.901309 0.000000
Zn21  Zn    Zn3+2 0.231207 0.592538 0.061380 0.000000
Zn22  Zn    Zn3+2 0.098729 0.768205 0.582031 0.000000
Zn23  Zn    Zn3+2 0.132593 0.219295 0.125630 0.000000
Zn24  Zn    Zn3+2 0.335407 0.032565 0.239208 0.000000
Zn25  Zn    Zn3+2 0.375269 0.713161 0.563843 0.000000
Zn26  Zn    Zn3+2 0.844911 0.268829 0.971237 0.000000
Zn27  Zn    Zn3+2 0.654361 0.188076 0.301289 0.000000
Zn28  Zn    Zn3+2 0.918288 0.023912 0.630944 0.000000
Zn29  Zn    Zn3+2 0.694122 0.308595 0.133267 0.000000
Zn30  Zn    Zn3+2 0.959750 0.143960 0.805009 0.000000
Zn31  Zn    Zn3+2 0.777924 0.305624 0.230965 0.000000
Zn32  Zn    Zn3+2 0.783500 0.035929 0.467562 0.000000
Zn33  Zn    Zn3+2 0.942149 0.162657 0.069591 0.000000
Zn34  Zn    Zn3+2 0.686270 0.136195 0.566446 0.000000
Zn35  Zn    Zn3+2 0.425873 0.815833 0.073919 0.000000
Zn36  Zn    Zn3+2 0.336744 0.742847 0.466507 0.000000
Zn37  Zn    Zn3+2 0.400800 0.030831 0.135376 0.000000
Zn38  Zn    Zn3+2 0.730817 0.485979 0.383910 0.000000
Zn39  Zn    Zn3+2 0.724799 0.546149 0.287677 0.000000
Zn40  Zn    Zn3+2 0.981436 0.035793 0.903528 0.000000
Zn41  Zn    Zn3+2 0.838341 0.028486 0.736508 0.000000
Zn42  Zn    Zn3+2 0.157918 0.055585 0.651220 0.000000
Zn43  Zn    Zn3+2 0.562524 0.480263 0.977209 0.000000
Zn44  Zn    Zn3+2 0.892335 0.427244 0.821253 0.000000
Zn45  Zn    Zn3+2 0.712910 0.903562 0.316158 0.000000
Zn46  Zn    Zn3+2 0.053469 0.819815 0.486770 0.000000
Zn47  Zn    Zn3+2 0.478696 0.240308 0.146102 0.000000
Zn48  Zn    Zn3+2 0.458494 0.420237 0.549592 0.000000
Zn49  Zn    Zn3+2 0.066810 0.222969 0.222063 0.000000
Zn50  Zn    Zn3+2 0.209591 0.839322 0.955390 0.000000
Zn51  Zn    Zn3+2 0.133718 0.534585 0.466470 0.000000
Zn52  Zn    Zn3+2 0.519183 0.814392 0.298203 0.000000
Zn53  Zn    Zn3+2 0.931692 0.627462 0.300836 0.000000
Zn54  Zn    Zn3+2 0.237382 0.275376 0.630717 0.000000
Zn55  Zn    Zn3+2 0.274149 0.556769 0.961609 0.000000
Zn56  Zn    Zn3+2 0.903565 0.777924 0.784727 0.000000
Zn57  Zn    Zn3+2 0.492524 0.763235 0.969161 0.000000
Zn58  Zn    Zn3+2 0.511632 0.077138 0.622890 0.000000
Zn59  Zn    Zn3+2 0.936592 0.570552 0.396262 0.000000
Zn60  Zn    Zn3+2 0.524715 0.757700 0.398151 0.000000
C1    C     C_3   0.431626 0.543599 0.370965 0.000000
C2    C     C_R   0.472864 0.486515 0.381754 0.000000
C3    C     C_R   0.526113 0.443699 0.371619 0.000000
C4    C     C_R   0.564388 0.390862 0.381848 0.000000
C5    C     C_R   0.544522 0.379192 0.401059 0.000000
N1    N     N_R   0.571219 0.327978 0.412443 0.000000
C6    C     C_R   0.529279 0.340925 0.429292 0.000000
N2    N     N_R   0.480255 0.399742 0.429203 0.000000
C7    C     C_R   0.491957 0.421148 0.410893 0.000000
C8    C     C_R   0.458637 0.476954 0.402240 0.000000
S1    S     S_3+2 0.536787 0.285125 0.448645 0.000000
O1    O     O_2   0.518091 0.237108 0.439807 0.000000
O2    O     O_2   0.489510 0.312962 0.466887 0.000000
O3    O     O_3   0.603854 0.244936 0.460973 0.000000
H1    H     H_    0.424536 0.584708 0.380824 0.000000
H2    H     H_    0.387152 0.543417 0.368998 0.000000
H3    H     H_    0.451235 0.545905 0.355105 0.000000
H4    H     H_    0.537973 0.452067 0.355781 0.000000
H5    H     H_    0.605972 0.357622 0.374033 0.000000
H6    H     H_    0.423196 0.512536 0.411135 0.000000
H7    H     H_    0.596205 0.263449 0.475569 0.000000
C9    C     C_3   0.227916 0.727920 0.394681 0.000000
C10   C     C_R   0.267986 0.679779 0.409170 0.000000
C11   C     C_R   0.281643 0.618791 0.404678 0.000000
C12   C     C_R   0.314557 0.573288 0.418524 0.000000
C13   C     C_R   0.335149 0.589180 0.436451 0.000000
N3    N     N_R   0.377520 0.550861 0.449405 0.000000
C14   C     C_R   0.392350 0.590817 0.460651 0.000000
N4    N     N_R   0.355101 0.652869 0.457067 0.000000
C15   C     C_R   0.322949 0.648915 0.440705 0.000000
C16   C     C_R   0.290028 0.695239 0.427220 0.000000
S2    S     S_3+2 0.470660 0.562963 0.464661 0.000000
O4    O     O_2   0.489011 0.520562 0.482966 0.000000
O5    O     O_2   0.490233 0.610464 0.472468 0.000000
O6    O     O_3   0.521386 0.520130 0.444529 0.000000
H8    H     H_    0.242962 0.712613 0.378009 0.000000
H9    H     H_    0.228241 0.772783 0.398213 0.000000
H10   H     H_    0.181019 0.733103 0.396467 0.000000
H11   H     H_    0.266792 0.606650 0.390113 0.000000
H12   H     H_    0.329940 0.525651 0.414021 0.000000
H13   H     H_    0.281702 0.742063 0.430614 0.000000
H14   H     H_    0.561797 0.507094 0.450564 0.000000
C17   C     C_3   0.375057 0.232367 0.460288 0.000000
C18   C     C_R   0.339085 0.300179 0.464386 0.000000
C19   C     C_R   0.282074 0.322397 0.474270 0.000000
C20   C     C_R   0.243236 0.384987 0.475222 0.000000
C21   C     C_R   0.261795 0.424408 0.465531 0.000000
N5    N     N_R   0.227500 0.482515 0.458823 0.000000
C22   C     C_R   0.267699 0.489143 0.444613 0.000000
N6    N     N_R   0.327717 0.446898 0.447850 0.000000
C23   C     C_R   0.320614 0.403063 0.458392 0.000000
C24   C     C_R   0.359777 0.341135 0.456997 0.000000
S3    S     S_3+2 0.245826 0.485573 0.417691 0.000000
O7    O     O_2   0.209262 0.448355 0.417325 0.000000
O8    O     O_2   0.300824 0.442284 0.403461 0.000000
O9    O     O_3   0.205072 0.547479 0.402457 0.000000
H15   H     H_    0.380924 0.208064 0.475458 0.000000
H16   H     H_    0.420077 0.221575 0.452813 0.000000
H17   H     H_    0.350189 0.216117 0.449427 0.000000
H18   H     H_    0.266120 0.290108 0.479852 0.000000
H19   H     H_    0.198209 0.400102 0.481532 0.000000
H20   H     H_    0.401425 0.325105 0.447566 0.000000
H21   H     H_    0.168926 0.542086 0.398841 0.000000
C25   C     C_3   0.429413 0.874210 0.837294 0.000000
C26   C     C_R   0.489995 0.844216 0.846875 0.000000
C27   C     C_R   0.496616 0.858435 0.867912 0.000000
C28   C     C_R   0.551705 0.827979 0.877494 0.000000
C29   C     C_R   0.600413 0.787649 0.865040 0.000000
N7    N     N_R   0.658245 0.754662 0.870797 0.000000
C30   C     C_R   0.685562 0.728289 0.851520 0.000000
N8    N     N_R   0.649917 0.739904 0.834369 0.000000
C31   C     C_R   0.595093 0.777495 0.843670 0.000000
C32   C     C_R   0.539556 0.802292 0.834640 0.000000
S4    S     S_3+2 0.756813 0.675323 0.849051 0.000000
O10   O     O_2   0.756185 0.612950 0.846626 0.000000
O11   O     O_2   0.792176 0.672783 0.868896 0.000000
O12   O     O_3   0.794094 0.682110 0.827230 0.000000
H22   H     H_    0.416260 0.838082 0.832193 0.000000
H23   H     H_    0.431733 0.900348 0.823268 0.000000
H24   H     H_    0.394750 0.906278 0.849050 0.000000
H25   H     H_    0.457926 0.891785 0.877261 0.000000
H26   H     H_    0.556354 0.837591 0.893967 0.000000
H27   H     H_    0.534609 0.790558 0.818431 0.000000
H28   H     H_    0.793333 0.651940 0.816925 0.000000
C33   C     C_3   0.640438 0.619301 0.703119 0.000000
C34   C     C_R   0.626052 0.645479 0.725299 0.000000
C35   C     C_R   0.649869 0.606930 0.742128 0.000000
C36   C     C_R   0.644794 0.632009 0.762376 0.000000
C37   C     C_R   0.610261 0.694788 0.765584 0.000000
N9    N     N_R   0.614799 0.730542 0.781395 0.000000
C38   C     C_R   0.576456 0.789369 0.775087 0.000000
N10   N     N_R   0.549443 0.791252 0.755972 0.000000
C39   C     C_R   0.576767 0.730885 0.749714 0.000000
C40   C     C_R   0.591557 0.708356 0.729088 0.000000
S5    S     S_3+2 0.582685 0.853631 0.786182 0.000000
O13   O     O_2   0.634594 0.814611 0.799873 0.000000
O14   O     O_2   0.540943 0.890183 0.805185 0.000000
O15   O     O_3   0.619361 0.892591 0.775164 0.000000
H29   H     H_    0.690345 0.597113 0.700020 0.000000
H30   H     H_    0.618592 0.656339 0.691611 0.000000
H31   H     H_    0.623418 0.584299 0.701086 0.000000
H32   H     H_    0.677683 0.557954 0.739127 0.000000
H33   H     H_    0.669891 0.602908 0.774776 0.000000
H34   H     H_    0.581345 0.739462 0.716198 0.000000
H35   H     H_    0.652741 0.885095 0.784823 0.000000
C41   C     C_3   0.470741 0.640470 0.717187 0.000000
C42   C     C_R   0.474917 0.688366 0.703657 0.000000
C43   C     C_R   0.483432 0.677936 0.681700 0.000000
C44   C     C_R   0.484706 0.722772 0.668588 0.000000
C45   C     C_R   0.479155 0.776603 0.678078 0.000000
N11   N     N_R   0.469385 0.829782 0.668531 0.000000
C46   C     C_R   0.473580 0.863792 0.685945 0.000000
N12   N     N_R   0.480603 0.836863 0.705614 0.000000
C47   C     C_R   0.478765 0.783576 0.699875 0.000000
C48   C     C_R   0.471654 0.742194 0.712955 0.000000
S6    S     S_3+2 0.479230 0.930874 0.681537 0.000000
O16   O     O_2   0.487351 0.884888 0.663782 0.000000
O17   O     O_2   0.544555 0.916853 0.675473 0.000000
O18   O     O_3   0.438090 0.976998 0.662047 0.000000
H36   H     H_    0.431412 0.633007 0.712549 0.000000
H37   H     H_    0.464787 0.655465 0.734201 0.000000
H38   H     H_    0.513019 0.596582 0.714861 0.000000
H39   H     H_    0.486699 0.635407 0.674729 0.000000
H40   H     H_    0.488005 0.716517 0.651472 0.000000
H41   H     H_    0.465270 0.750896 0.729975 0.000000
H42   H     H_    0.404790 0.010289 0.670312 0.000000
C49   C     C_3   0.270050 0.616946 0.850245 0.000000
C50   C     C_R   0.222042 0.600262 0.843451 0.000000
C51   C     C_R   0.213641 0.597562 0.821895 0.000000
C52   C     C_R   0.177127 0.572457 0.814738 0.000000
C53   C     C_R   0.146993 0.554270 0.829328 0.000000
N13   N     N_R   0.121905 0.516749 0.825051 0.000000
C54   C     C_R   0.113974 0.497895 0.845051 0.000000
N14   N     N_R   0.127650 0.527799 0.861501 0.000000
C55   C     C_R   0.151924 0.559807 0.850671 0.000000
C56   C     C_R   0.191185 0.581042 0.858093 0.000000
S7    S     S_3+2 0.124022 0.420782 0.847582 0.000000
O19   O     O_2   0.146135 0.388688 0.825630 0.000000
O20   O     O_2   0.066241 0.412882 0.851481 0.000000
O21   O     O_3   0.178244 0.370879 0.863606 0.000000
H43   H     H_    0.313335 0.586918 0.841444 0.000000
H44   H     H_    0.276738 0.609562 0.867410 0.000000
H45   H     H_    0.256808 0.665943 0.846708 0.000000
H46   H     H_    0.240244 0.609523 0.810595 0.000000
H47   H     H_    0.178302 0.559561 0.798341 0.000000
H48   H     H_    0.203901 0.574816 0.874285 0.000000
H49   H     H_    0.215203 0.350684 0.854175 0.000000
C57   C     C_3   0.341084 0.406185 0.824516 0.000000
C58   C     C_R   0.316450 0.392804 0.804824 0.000000
C59   C     C_R   0.355280 0.350107 0.789881 0.000000
C60   C     C_R   0.332645 0.334978 0.772121 0.000000
C61   C     C_R   0.271344 0.364956 0.768778 0.000000
N15   N     N_R   0.239512 0.354953 0.753147 0.000000
C62   C     C_R   0.180166 0.398132 0.759044 0.000000
N16   N     N_R   0.175666 0.432687 0.777237 0.000000
C63   C     C_R   0.233627 0.409418 0.783080 0.000000
C64   C     C_R   0.254962 0.421617 0.801631 0.000000
S8    S     S_3+2 0.112103 0.408573 0.746219 0.000000
O22   O     O_2   0.106251 0.434775 0.723887 0.000000
O23   O     O_2   0.058860 0.462556 0.757782 0.000000
O24   O     O_3   0.084706 0.354896 0.745965 0.000000
H50   H     H_    0.365134 0.362834 0.833171 0.000000
H51   H     H_    0.303878 0.440635 0.834973 0.000000
H52   H     H_    0.373487 0.424777 0.820151 0.000000
H53   H     H_    0.403439 0.326530 0.792478 0.000000
H54   H     H_    0.363668 0.299351 0.761873 0.000000
H55   H     H_    0.225207 0.450103 0.814014 0.000000
H56   H     H_    0.040396 0.379495 0.748775 0.000000
C65   C     C_3   0.272270 0.048699 0.674103 0.000000
C66   C     C_R   0.265990 0.097109 0.689421 0.000000
C67   C     C_R   0.280828 0.142577 0.684246 0.000000
C68   C     C_R   0.282364 0.182091 0.699997 0.000000
C69   C     C_R   0.256052 0.182662 0.719317 0.000000
N17   N     N_R   0.254828 0.214840 0.736877 0.000000
C70   C     C_R   0.235224 0.186106 0.752209 0.000000
N18   N     N_R   0.225105 0.138115 0.744093 0.000000
C71   C     C_R   0.238772 0.139041 0.723651 0.000000
C72   C     C_R   0.250897 0.092602 0.709709 0.000000
S9    S     S_3+2 0.231530 0.201770 0.780241 0.000000
O25   O     O_2   0.237992 0.259957 0.786552 0.000000
O26   O     O_2   0.285476 0.151215 0.791068 0.000000
O27   O     O_3   0.168940 0.207614 0.794274 0.000000
H57   H     H_    0.237934 0.067845 0.662686 0.000000
H58   H     H_    0.264542 0.012932 0.682175 0.000000
H59   H     H_    0.316537 0.028312 0.665842 0.000000
H60   H     H_    0.297898 0.139880 0.668549 0.000000
H61   H     H_    0.308553 0.206755 0.698030 0.000000
H62   H     H_    0.255193 0.049715 0.714953 0.000000
H63   H     H_    0.143309 0.203886 0.783099 0.000000
C73   C     C_3   0.366171 0.774754 0.803029 0.000000
C74   C     C_R   0.345499 0.831883 0.790554 0.000000
C75   C     C_R   0.284674 0.875243 0.792205 0.000000
C76   C     C_R   0.262931 0.928295 0.780431 0.000000
C77   C     C_R   0.303349 0.936604 0.766947 0.000000
N19   N     N_R   0.291599 0.982763 0.753109 0.000000
C78   C     C_R   0.349552 0.963624 0.743927 0.000000
N20   N     N_R   0.395014 0.909470 0.750899 0.000000
C79   C     C_R   0.363996 0.893550 0.765507 0.000000
C80   C     C_R   0.386166 0.841037 0.777126 0.000000
S10   S     S_3+2 0.367189 0.995278 0.722329 0.000000
O28   O     O_2   0.357830 0.971308 0.700870 0.000000
O29   O     O_2   0.434194 0.957515 0.721956 0.000000
O30   O     O_3   0.365744 0.065825 0.720869 0.000000
H64   H     H_    0.355220 0.787472 0.820180 0.000000
H65   H     H_    0.415861 0.746116 0.800534 0.000000
H66   H     H_    0.342313 0.747768 0.797818 0.000000
H67   H     H_    0.253801 0.866812 0.802641 0.000000
H68   H     H_    0.215390 0.960848 0.781450 0.000000
H69   H     H_    0.433443 0.807652 0.775448 0.000000
H70   H     H_    0.353121 0.083069 0.735429 0.000000
C81   C     C_3   0.857876 0.607666 0.482382 0.000000
C82   C     C_R   0.848147 0.655255 0.466225 0.000000
C83   C     C_R   0.801395 0.714706 0.469002 0.000000
C84   C     C_R   0.784265 0.753976 0.452070 0.000000
C85   C     C_R   0.809766 0.730981 0.432266 0.000000
N21   N     N_R   0.794900 0.759143 0.413467 0.000000
C86   C     C_R   0.835181 0.712668 0.399509 0.000000
N22   N     N_R   0.871267 0.657894 0.408858 0.000000
C87   C     C_R   0.855448 0.672455 0.429628 0.000000
C88   C     C_R   0.879278 0.636428 0.446810 0.000000
S11   S     S_3+2 0.854732 0.721399 0.373175 0.000000
O31   O     O_2   0.806762 0.760146 0.357948 0.000000
O32   O     O_2   0.870212 0.658735 0.362967 0.000000
O33   O     O_3   0.919245 0.729533 0.367866 0.000000
H71   H     H_    0.838496 0.629261 0.498192 0.000000
H72   H     H_    0.906849 0.575715 0.483023 0.000000
H73   H     H_    0.834756 0.579737 0.477506 0.000000
H74   H     H_    0.777067 0.730132 0.484211 0.000000
H75   H     H_    0.750043 0.800117 0.454266 0.000000
H76   H     H_    0.917514 0.592053 0.445158 0.000000
H77   H     H_    0.926940 0.745978 0.381320 0.000000
C89   C     C_3   0.471011 0.040399 0.451487 0.000000
C90   C     C_R   0.495823 0.977877 0.440945 0.000000
C91   C     C_R   0.458751 0.949223 0.439821 0.000000
C92   C     C_R   0.480327 0.891548 0.430282 0.000000
C93   C     C_R   0.539074 0.862838 0.422285 0.000000
N23   N     N_R   0.566229 0.808703 0.411323 0.000000
C94   C     C_R   0.625416 0.799867 0.409255 0.000000
N24   N     N_R   0.635615 0.847890 0.416819 0.000000
C95   C     C_R   0.578419 0.888017 0.424664 0.000000
C96   C     C_R   0.555561 0.947876 0.433087 0.000000
S12   S     S_3+2 0.674937 0.747120 0.390543 0.000000
O34   O     O_2   0.640145 0.725294 0.375694 0.000000
O35   O     O_2   0.723391 0.687635 0.399390 0.000000
O36   O     O_3   0.710316 0.775574 0.374008 0.000000
H78   H     H_    0.431927 0.073308 0.442652 0.000000
H79   H     H_    0.506125 0.057018 0.451971 0.000000
H80   H     H_    0.455088 0.038152 0.467967 0.000000
H81   H     H_    0.412751 0.971977 0.446470 0.000000
H82   H     H_    0.452203 0.869006 0.430433 0.000000
H83   H     H_    0.582835 0.971515 0.434585 0.000000
H84   H     H_    0.676593 0.811581 0.368116 0.000000
C97   C     C_3   0.693220 0.451138 0.881500 0.000000
C98   C     C_R   0.712704 0.500695 0.884290 0.000000
C99   C     C_R   0.677209 0.558860 0.876865 0.000000
C100  C     C_R   0.689850 0.607305 0.881803 0.000000
C101  C     C_R   0.736594 0.597425 0.895146 0.000000
N25   N     N_R   0.748445 0.639720 0.905768 0.000000
C102  C     C_R   0.795347 0.601685 0.918433 0.000000
N26   N     N_R   0.816130 0.539142 0.914376 0.000000
C103  C     C_R   0.774382 0.539130 0.900994 0.000000
C104  C     C_R   0.763561 0.490263 0.895581 0.000000
S13   S     S_3+2 0.821597 0.627918 0.940370 0.000000
O37   O     O_2   0.846304 0.557720 0.941705 0.000000
O38   O     O_2   0.753829 0.646990 0.944510 0.000000
O39   O     O_3   0.818080 0.618956 0.967254 0.000000
H85   H     H_    0.730373 0.409571 0.873663 0.000000
H86   H     H_    0.652389 0.467518 0.871856 0.000000
H87   H     H_    0.680497 0.439660 0.897236 0.000000
H88   H     H_    0.636936 0.568004 0.868328 0.000000
H89   H     H_    0.659975 0.652082 0.876363 0.000000
H90   H     H_    0.790905 0.446638 0.901825 0.000000
H91   H     H_    0.856317 0.582160 0.970149 0.000000
C105  C     C_3   0.132434 0.266516 0.936980 0.000000
C106  C     C_R   0.112279 0.325354 0.925527 0.000000
C107  C     C_R   0.155730 0.340044 0.916253 0.000000
C108  C     C_R   0.139055 0.397476 0.907821 0.000000
C109  C     C_R   0.078597 0.438387 0.908214 0.000000
N27   N     N_R   0.055103 0.499607 0.905489 0.000000
C110  C     C_R   0.997377 0.520436 0.914353 0.000000
N28   N     N_R   0.981188 0.473483 0.918961 0.000000
C111  C     C_R   0.035330 0.423112 0.916424 0.000000
C112  C     C_R   0.051217 0.367143 0.925571 0.000000
S14   S     S_3+2 0.970184 0.589270 0.930689 0.000000
O40   O     O_2   0.025976 0.600146 0.933787 0.000000
O41   O     O_2   0.956055 0.580572 0.953968 0.000000
O42   O     O_3   0.918271 0.660955 0.923944 0.000000
H92   H     H_    0.161571 0.227129 0.926112 0.000000
H93   H     H_    0.092626 0.260462 0.942833 0.000000
H94   H     H_    0.159177 0.267625 0.950709 0.000000
H95   H     H_    0.203308 0.307754 0.916745 0.000000
H96   H     H_    0.173041 0.410763 0.902333 0.000000
H97   H     H_    0.017726 0.358305 0.934228 0.000000
H98   H     H_    0.895773 0.654286 0.912383 0.000000
C113  C     C_3   0.315917 0.429240 0.324349 0.000000
C114  C     C_R   0.291061 0.428904 0.303090 0.000000
C115  C     C_R   0.234194 0.475084 0.298584 0.000000
C116  C     C_R   0.208841 0.474299 0.279351 0.000000
C117  C     C_R   0.242700 0.428513 0.264522 0.000000
N29   N     N_R   0.224471 0.415941 0.245882 0.000000
C118  C     C_R   0.275013 0.364629 0.238559 0.000000
N30   N     N_R   0.324318 0.343440 0.251542 0.000000
C119  C     C_R   0.300803 0.384850 0.268265 0.000000
C120  C     C_R   0.324209 0.382499 0.288075 0.000000
S15   S     S_3+2 0.264021 0.316398 0.221155 0.000000
O43   O     O_2   0.214019 0.348710 0.205447 0.000000
O44   O     O_2   0.237402 0.282204 0.234377 0.000000
O45   O     O_3   0.325718 0.260055 0.208658 0.000000
H99   H     H_    0.319131 0.473076 0.326891 0.000000
H100  H     H_    0.361758 0.389884 0.325347 0.000000
H101  H     H_    0.285175 0.425578 0.336875 0.000000
H102  H     H_    0.208680 0.510932 0.310458 0.000000
H103  H     H_    0.163796 0.508858 0.276361 0.000000
H104  H     H_    0.366733 0.344896 0.292114 0.000000
H105  H     H_    0.353798 0.248729 0.220293 0.000000
C121  C     C_3   0.264655 0.164833 0.320079 0.000000
C122  C     C_R   0.291940 0.174130 0.299849 0.000000
C123  C     C_R   0.297240 0.228191 0.297852 0.000000
C124  C     C_R   0.329210 0.234759 0.280626 0.000000
C125  C     C_R   0.349671 0.190379 0.264701 0.000000
N31   N     N_R   0.395230 0.181174 0.250719 0.000000
C126  C     C_R   0.414027 0.119120 0.244546 0.000000
N32   N     N_R   0.372414 0.096480 0.250417 0.000000
C127  C     C_R   0.338195 0.140174 0.265244 0.000000
C128  C     C_R   0.314503 0.128846 0.283601 0.000000
S16   S     S_3+2 0.495119 0.070630 0.237442 0.000000
O46   O     O_2   0.522775 0.115232 0.233327 0.000000
O47   O     O_2   0.505827 0.038686 0.215406 0.000000
O48   O     O_3   0.549914 0.018079 0.252742 0.000000
H106  H     H_    0.287904 0.172914 0.333740 0.000000
H107  H     H_    0.269735 0.117128 0.320548 0.000000
H108  H     H_    0.215854 0.198390 0.321412 0.000000
H109  H     H_    0.282341 0.262098 0.310857 0.000000
H110  H     H_    0.345384 0.268657 0.281178 0.000000
H111  H     H_    0.321209 0.082733 0.285909 0.000000
H112  H     H_    0.583806 0.993211 0.242498 0.000000
C129  C     C_3   0.257717 0.031525 0.018365 0.000000
C130  C     C_R   0.238012 0.987348 0.009883 0.000000
C131  C     C_R   0.238531 0.980182 0.988118 0.000000
C132  C     C_R   0.220999 0.938666 0.979711 0.000000
C133  C     C_R   0.202941 0.906410 0.993195 0.000000
N33   N     N_R   0.184094 0.864951 0.987416 0.000000
C134  C     C_R   0.157494 0.858001 0.006497 0.000000
N34   N     N_R   0.169294 0.886384 0.023632 0.000000
C135  C     C_R   0.196540 0.917570 0.014369 0.000000
C136  C     C_R   0.216610 0.956137 0.023438 0.000000
S17   S     S_3+2 0.086003 0.854195 0.007696 0.000000
O49   O     O_2   0.067166 0.852706 0.985146 0.000000
O50   O     O_2   0.034136 0.916588 0.015402 0.000000
O51   O     O_3   0.068567 0.799844 0.018664 0.000000
H113  H     H_    0.304987 0.018059 0.012871 0.000000
H114  H     H_    0.254283 0.030748 0.035773 0.000000
H115  H     H_    0.227700 0.077531 0.012320 0.000000
H116  H     H_    0.253295 0.006481 0.977775 0.000000
H117  H     H_    0.219319 0.932901 0.963144 0.000000
H118  H     H_    0.215727 0.961453 0.040442 0.000000
H119  H     H_    0.044621 0.791510 0.007820 0.000000
C137  C     C_3   0.930166 0.849539 0.061606 0.000000
C138  C     C_R   0.995592 0.806976 0.064029 0.000000
C139  C     C_R   0.012491 0.746834 0.070101 0.000000
C140  C     C_R   0.073167 0.705345 0.071059 0.000000
C141  C     C_R   0.115809 0.725639 0.066207 0.000000
N35   N     N_R   0.176741 0.691894 0.064204 0.000000
C142  C     C_R   0.195014 0.737860 0.063612 0.000000
N36   N     N_R   0.148874 0.796899 0.060752 0.000000
C143  C     C_R   0.099280 0.786575 0.062559 0.000000
C144  C     C_R   0.039222 0.827322 0.060274 0.000000
S18   S     S_3+2 0.248457 0.729982 0.082145 0.000000
O52   O     O_2   0.273706 0.666318 0.091772 0.000000
O53   O     O_2   0.216263 0.768472 0.102164 0.000000
O54   O     O_3   0.308769 0.743654 0.076056 0.000000
H120  H     H_    0.911959 0.830480 0.049085 0.000000
H121  H     H_    0.924391 0.895843 0.057058 0.000000
H122  H     H_    0.904700 0.853979 0.076881 0.000000
H123  H     H_    0.978081 0.731760 0.073517 0.000000
H124  H     H_    0.086110 0.658880 0.075723 0.000000
H125  H     H_    0.026602 0.872925 0.054535 0.000000
H126  H     H_    0.340871 0.703920 0.070726 0.000000
C145  C     C_3   0.159899 0.870986 0.144332 0.000000
C146  C     C_R   0.206313 0.867731 0.128028 0.000000
C147  C     C_R   0.267377 0.833729 0.132077 0.000000
C148  C     C_R   0.311783 0.824924 0.116551 0.000000
C149  C     C_R   0.294453 0.852629 0.097483 0.000000
N37   N     N_R   0.330293 0.846839 0.079994 0.000000
C150  C     C_R   0.289204 0.860977 0.064598 0.000000
N38   N     N_R   0.229798 0.879086 0.071412 0.000000
C151  C     C_R   0.234602 0.877697 0.092605 0.000000
C152  C     C_R   0.189283 0.890105 0.107870 0.000000
S19   S     S_3+2 0.317571 0.823879 0.041122 0.000000
O55   O     O_2   0.379912 0.769316 0.044068 0.000000
O56   O     O_2   0.331634 0.866764 0.027181 0.000000
O57   O     O_3   0.276696 0.795303 0.027808 0.000000
H127  H     H_    0.165601 0.823628 0.147135 0.000000
H128  H     H_    0.113553 0.899533 0.138751 0.000000
H129  H     H_    0.166359 0.890947 0.159468 0.000000
H130  H     H_    0.280444 0.813044 0.147364 0.000000
H131  H     H_    0.359224 0.798163 0.119497 0.000000
H132  H     H_    0.142426 0.912685 0.103858 0.000000
H133  H     H_    0.257533 0.781414 0.039108 0.000000
C153  C     C_3   0.672271 0.214204 0.680022 0.000000
C154  C     C_R   0.641014 0.177959 0.672536 0.000000
C155  C     C_R   0.637432 0.169024 0.651032 0.000000
C156  C     C_R   0.606895 0.136902 0.643968 0.000000
C157  C     C_R   0.579330 0.114875 0.658159 0.000000
N39   N     N_R   0.541487 0.088761 0.654630 0.000000
C158  C     C_R   0.532183 0.074533 0.675548 0.000000
N40   N     N_R   0.563662 0.088709 0.690578 0.000000
C159  C     C_R   0.589583 0.117432 0.679187 0.000000
C160  C     C_R   0.618340 0.150339 0.686835 0.000000
S20   S     S_3+2 0.469662 0.065672 0.685865 0.000000
O58   O     O_2   0.411033 0.124194 0.691143 0.000000
O59   O     O_2   0.492233 0.102054 0.699545 0.000000
O60   O     O_3   0.478053 0.030151 0.708835 0.000000
H134  H     H_    0.719044 0.192439 0.673063 0.000000
H135  H     H_    0.673603 0.214620 0.697629 0.000000
H136  H     H_    0.648094 0.262286 0.674602 0.000000
H137  H     H_    0.658845 0.186908 0.639678 0.000000
H138  H     H_    0.608202 0.126413 0.627803 0.000000
H139  H     H_    0.623687 0.154507 0.703433 0.000000
H140  H     H_    0.463441 0.065036 0.719335 0.000000
C161  C     C_3   0.420133 0.417149 0.719457 0.000000
C162  C     C_R   0.438460 0.350215 0.722018 0.000000
C163  C     C_R   0.499774 0.309019 0.722682 0.000000
C164  C     C_R   0.518290 0.246639 0.725563 0.000000
C165  C     C_R   0.474604 0.226279 0.726978 0.000000
N41   N     N_R   0.481808 0.169548 0.732185 0.000000
C166  C     C_R   0.421811 0.180637 0.736052 0.000000
N42   N     N_R   0.379338 0.238072 0.729686 0.000000
C167  C     C_R   0.414335 0.266657 0.725841 0.000000
C168  C     C_R   0.394745 0.329239 0.724043 0.000000
S21   S     S_3+2 0.404674 0.162759 0.761643 0.000000
O61   O     O_2   0.395030 0.105300 0.764610 0.000000
O62   O     O_2   0.340362 0.212401 0.766484 0.000000
O63   O     O_3   0.440152 0.174011 0.783124 0.000000
H141  H     H_    0.436953 0.434725 0.732848 0.000000
H142  H     H_    0.369973 0.443426 0.719330 0.000000
H143  H     H_    0.440136 0.423547 0.704228 0.000000
H144  H     H_    0.533368 0.326174 0.721706 0.000000
H145  H     H_    0.565086 0.216480 0.728267 0.000000
H146  H     H_    0.346775 0.360528 0.724082 0.000000
H147  H     H_    0.407041 0.206510 0.791991 0.000000
C169  C     C_3   0.510757 0.070949 0.812193 0.000000
C170  C     C_R   0.503331 0.042168 0.792088 0.000000
C171  C     C_R   0.468032 0.010883 0.792469 0.000000
C172  C     C_R   0.468768 0.975122 0.774973 0.000000
C173  C     C_R   0.503685 0.973740 0.757332 0.000000
N43   N     N_R   0.524361 0.931025 0.741264 0.000000
C174  C     C_R   0.562758 0.948355 0.729839 0.000000
N44   N     N_R   0.560185 0.004495 0.736948 0.000000
C175  C     C_R   0.528210 0.013948 0.755540 0.000000
C176  C     C_R   0.532010 0.045741 0.773199 0.000000
S22   S     S_3+2 0.624182 0.892076 0.713783 0.000000
O64   O     O_2   0.612290 0.836966 0.707616 0.000000
O65   O     O_2   0.680157 0.859768 0.727226 0.000000
O66   O     O_3   0.650850 0.910610 0.691002 0.000000
H148  H     H_    0.465540 0.104666 0.818854 0.000000
H149  H     H_    0.539282 0.094914 0.809151 0.000000
H150  H     H_    0.532919 0.034432 0.823857 0.000000
H151  H     H_    0.444598 0.009549 0.807110 0.000000
H152  H     H_    0.448995 0.943770 0.776480 0.000000
H153  H     H_    0.560841 0.067976 0.772820 0.000000
H154  H     H_    0.694970 0.882614 0.690492 0.000000
C177  C     C_3   0.737551 0.028930 0.855127 0.000000
C178  C     C_R   0.788714 0.975268 0.844079 0.000000
C179  C     C_R   0.793076 0.972718 0.822113 0.000000
C180  C     C_R   0.832926 0.918949 0.811316 0.000000
C181  C     C_R   0.869260 0.868833 0.822608 0.000000
N45   N     N_R   0.909676 0.811636 0.815375 0.000000
C182  C     C_R   0.939789 0.786246 0.833698 0.000000
N46   N     N_R   0.909509 0.820496 0.851892 0.000000
C183  C     C_R   0.868483 0.873455 0.844080 0.000000
C184  C     C_R   0.828344 0.925699 0.855383 0.000000
S23   S     S_3+2 0.022501 0.746718 0.832518 0.000000
O67   O     O_2   0.047043 0.781811 0.818175 0.000000
O68   O     O_2   0.051471 0.682817 0.821647 0.000000
O69   O     O_3   0.063115 0.736183 0.854943 0.000000
H155  H     H_    0.742997 0.071480 0.852960 0.000000
H156  H     H_    0.735515 0.019906 0.872235 0.000000
H157  H     H_    0.694317 0.035293 0.848232 0.000000
H158  H     H_    0.762489 0.011641 0.813333 0.000000
H159  H     H_    0.833503 0.916785 0.794617 0.000000
H160  H     H_    0.824415 0.926470 0.872482 0.000000
H161  H     H_    0.098679 0.742481 0.850388 0.000000
C185  C     C_3   0.793177 0.768815 0.980346 0.000000
C186  C     C_R   0.809926 0.772840 0.957698 0.000000
C187  C     C_R   0.858389 0.785385 0.952872 0.000000
C188  C     C_R   0.873885 0.790981 0.931959 0.000000
C189  C     C_R   0.837697 0.787097 0.916407 0.000000
N47   N     N_R   0.834912 0.806189 0.896304 0.000000
C190  C     C_R   0.781299 0.805558 0.889869 0.000000
N48   N     N_R   0.760701 0.774473 0.903611 0.000000
C191  C     C_R   0.792671 0.770758 0.920937 0.000000
C192  C     C_R   0.776787 0.765099 0.941576 0.000000
S24   S     S_3+2 0.720648 0.876447 0.881368 0.000000
O70   O     O_2   0.729147 0.901078 0.860026 0.000000
O71   O     O_2   0.712978 0.929885 0.896597 0.000000
O72   O     O_3   0.649007 0.881539 0.881454 0.000000
H162  H     H_    0.832163 0.731247 0.987842 0.000000
H163  H     H_    0.753409 0.758938 0.981417 0.000000
H164  H     H_    0.781688 0.813348 0.988880 0.000000
H165  H     H_    0.882773 0.792999 0.965635 0.000000
H166  H     H_    0.910369 0.802791 0.928256 0.000000
H167  H     H_    0.738231 0.756820 0.945203 0.000000
H168  H     H_    0.624427 0.917245 0.891173 0.000000
C193  C     C_3   0.226761 0.698591 0.899630 0.000000
C194  C     C_R   0.161812 0.711503 0.900817 0.000000
C195  C     C_R   0.118150 0.772025 0.899962 0.000000
C196  C     C_R   0.057443 0.785991 0.900473 0.000000
C197  C     C_R   0.041592 0.738847 0.899652 0.000000
N49   N     N_R   0.988368 0.741570 0.893667 0.000000
C198  C     C_R   0.001599 0.680226 0.892515 0.000000
N50   N     N_R   0.059545 0.640231 0.897769 0.000000
C199  C     C_R   0.084148 0.679026 0.901526 0.000000
C200  C     C_R   0.144701 0.664531 0.903056 0.000000
S25   S     S_3+2 0.964988 0.654208 0.875013 0.000000
O73   O     O_2   0.988150 0.662076 0.853248 0.000000
O74   O     O_2   0.896176 0.690906 0.873130 0.000000
O75   O     O_3   0.986202 0.577823 0.874010 0.000000
H169  H     H_    0.238192 0.709116 0.883537 0.000000
H170  H     H_    0.256470 0.649763 0.903254 0.000000
H171  H     H_    0.234116 0.729718 0.910905 0.000000
H172  H     H_    0.131675 0.808742 0.899732 0.000000
H173  H     H_    0.024086 0.832560 0.901573 0.000000
H174  H     H_    0.178456 0.618084 0.905122 0.000000
H175  H     H_    0.006448 0.565379 0.859798 0.000000
C201  C     C_3   0.307454 0.679753 0.004070 0.000000
C202  C     C_R   0.334862 0.655648 0.024364 0.000000
C203  C     C_R   0.391528 0.650408 0.028142 0.000000
C204  C     C_R   0.422720 0.618692 0.045116 0.000000
C205  C     C_R   0.397029 0.590904 0.057622 0.000000
N51   N     N_R   0.422770 0.551984 0.073235 0.000000
C206  C     C_R   0.376695 0.537335 0.079403 0.000000
N52   N     N_R   0.323190 0.567479 0.068132 0.000000
C207  C     C_R   0.340131 0.598882 0.054457 0.000000
C208  C     C_R   0.306955 0.633469 0.038433 0.000000
S26   S     S_3+2 0.391420 0.481058 0.099196 0.000000
O76   O     O_2   0.424612 0.415543 0.089390 0.000000
O77   O     O_2   0.335131 0.480247 0.109538 0.000000
O78   O     O_3   0.435679 0.480699 0.119751 0.000000
H176  H     H_    0.342058 0.686412 0.995047 0.000000
H177  H     H_    0.267054 0.724180 0.005927 0.000000
H178  H     H_    0.295888 0.646713 0.995438 0.000000
H179  H     H_    0.411601 0.671348 0.017900 0.000000
H180  H     H_    0.466035 0.615275 0.048002 0.000000
H181  H     H_    0.261823 0.640890 0.036054 0.000000
H182  H     H_    0.473127 0.441249 0.117652 0.000000
C209  C     C_3   0.669875 0.712752 0.102194 0.000000
C210  C     C_R   0.628535 0.686414 0.095653 0.000000
C211  C     C_R   0.652267 0.623257 0.091102 0.000000
C212  C     C_R   0.614437 0.597274 0.085778 0.000000
C213  C     C_R   0.553410 0.636223 0.084823 0.000000
N53   N     N_R   0.507868 0.620951 0.081670 0.000000
C214  C     C_R   0.456892 0.675932 0.086202 0.000000
N54   N     N_R   0.470183 0.725933 0.085638 0.000000
C215  C     C_R   0.530835 0.698378 0.087570 0.000000
C216  C     C_R   0.566910 0.724696 0.094026 0.000000
S27   S     S_3+2 0.416864 0.670240 0.110181 0.000000
O79   O     O_2   0.431083 0.602478 0.113312 0.000000
O80   O     O_2   0.347815 0.699913 0.111725 0.000000
O81   O     O_3   0.437333 0.690192 0.133866 0.000000
H183  H     H_    0.691996 0.691019 0.117001 0.000000
H184  H     H_    0.643995 0.763424 0.105064 0.000000
H185  H     H_    0.705121 0.703219 0.089385 0.000000
H186  H     H_    0.700374 0.593942 0.092329 0.000000
H187  H     H_    0.632072 0.547972 0.082991 0.000000
H188  H     H_    0.547727 0.772960 0.098333 0.000000
H189  H     H_    0.443108 0.655855 0.143321 0.000000
C217  C     C_3   0.090687 0.312213 0.528556 0.000000
C218  C     C_R   0.092471 0.369458 0.521137 0.000000
C219  C     C_R   0.069735 0.391714 0.501557 0.000000
C220  C     C_R   0.077628 0.439956 0.493237 0.000000
C221  C     C_R   0.106795 0.465781 0.505037 0.000000
N55   N     N_R   0.126664 0.506216 0.498394 0.000000
C222  C     C_R   0.146990 0.519755 0.517032 0.000000
N56   N     N_R   0.145390 0.486448 0.534565 0.000000
C223  C     C_R   0.121339 0.450646 0.525756 0.000000
C224  C     C_R   0.117985 0.399084 0.533437 0.000000
S28   S     S_3+2 0.166358 0.580094 0.518459 0.000000
O82   O     O_2   0.203983 0.579414 0.498692 0.000000
O83   O     O_2   0.209883 0.570640 0.536240 0.000000
O84   O     O_3   0.110009 0.653894 0.521325 0.000000
H190  H     H_    0.042825 0.320220 0.530390 0.000000
H191  H     H_    0.112816 0.298654 0.543975 0.000000
H192  H     H_    0.115175 0.274205 0.516600 0.000000
H193  H     H_    0.048478 0.369358 0.492303 0.000000
H194  H     H_    0.060522 0.457267 0.478030 0.000000
H195  H     H_    0.138921 0.378022 0.547697 0.000000
H196  H     H_    0.115767 0.668508 0.535335 0.000000
C225  C     C_3   0.997988 0.669300 0.146689 0.000000
C226  C     C_R   0.032670 0.618299 0.161122 0.000000
C227  C     C_R   0.012898 0.622426 0.182164 0.000000
C228  C     C_R   0.045254 0.576622 0.196094 0.000000
C229  C     C_R   0.097693 0.526272 0.188653 0.000000
N57   N     N_R   0.141743 0.482213 0.199969 0.000000
C230  C     C_R   0.190308 0.462621 0.185248 0.000000
N58   N     N_R   0.172459 0.475476 0.164341 0.000000
C231  C     C_R   0.116177 0.521927 0.167675 0.000000
C232  C     C_R   0.085164 0.567916 0.153790 0.000000
S29   S     S_3+2 0.240546 0.494316 0.192449 0.000000
O85   O     O_2   0.204441 0.565005 0.194468 0.000000
O86   O     O_2   0.286046 0.488752 0.174401 0.000000
O87   O     O_3   0.279469 0.475089 0.215469 0.000000
H197  H     H_    0.950896 0.674954 0.145900 0.000000
H198  H     H_    0.019722 0.658770 0.130470 0.000000
H199  H     H_    0.996829 0.712882 0.152971 0.000000
H200  H     H_    0.972244 0.662416 0.187835 0.000000
H201  H     H_    0.029112 0.582261 0.212361 0.000000
H202  H     H_    0.102579 0.566077 0.137753 0.000000
H203  H     H_    0.257934 0.511730 0.225129 0.000000
C233  C     C_3   0.591127 0.940509 0.992213 0.000000
C234  C     C_R   0.597225 0.900931 0.973076 0.000000
C235  C     C_R   0.630901 0.903124 0.955316 0.000000
C236  C     C_R   0.641672 0.862838 0.938117 0.000000
C237  C     C_R   0.616514 0.822514 0.938926 0.000000
N59   N     N_R   0.627266 0.774576 0.925410 0.000000
C238  C     C_R   0.586172 0.754836 0.933409 0.000000
N60   N     N_R   0.553733 0.785545 0.951631 0.000000
C239  C     C_R   0.576187 0.826498 0.955072 0.000000
C240  C     C_R   0.570058 0.861737 0.973097 0.000000
S30   S     S_3+2 0.579345 0.691944 0.922156 0.000000
O88   O     O_2   0.629765 0.700499 0.910907 0.000000
O89   O     O_2   0.555000 0.698909 0.899641 0.000000
O90   O     O_3   0.635463 0.617921 0.924057 0.000000
H204  H     H_    0.636818 0.928502 0.998205 0.000000
H205  H     H_    0.563006 0.933202 0.004868 0.000000
H206  H     H_    0.569150 0.989767 0.987898 0.000000
H207  H     H_    0.651370 0.934345 0.955339 0.000000
H208  H     H_    0.669892 0.862699 0.924746 0.000000
H209  H     H_    0.548963 0.855663 0.987358 0.000000
H210  H     H_    0.665561 0.621887 0.933156 0.000000
C241  C     C_3   0.057546 0.530407 0.033361 0.000000
C242  C     C_R   0.089938 0.519140 0.053614 0.000000
C243  C     C_R   0.086762 0.477307 0.067658 0.000000
C244  C     C_R   0.117249 0.465837 0.086435 0.000000
C245  C     C_R   0.150678 0.496993 0.091149 0.000000
N61   N     N_R   0.182690 0.495656 0.108567 0.000000
C246  C     C_R   0.207017 0.535325 0.103290 0.000000
N62   N     N_R   0.196296 0.554702 0.082734 0.000000
C247  C     C_R   0.157203 0.533945 0.076412 0.000000
C248  C     C_R   0.125788 0.547778 0.057989 0.000000
S31   S     S_3+2 0.217098 0.583631 0.123331 0.000000
O91   O     O_2   0.206650 0.565816 0.145760 0.000000
O92   O     O_2   0.164607 0.649247 0.122884 0.000000
O93   O     O_3   0.280870 0.594779 0.124825 0.000000
H211  H     H_    0.076030 0.486717 0.023686 0.000000
H212  H     H_    0.064199 0.565847 0.024237 0.000000
H213  H     H_    0.008334 0.546607 0.036908 0.000000
H214  H     H_    0.060610 0.452883 0.063877 0.000000
H215  H     H_    0.115246 0.431462 0.096067 0.000000
H216  H     H_    0.129805 0.579305 0.047074 0.000000
H217  H     H_    0.267841 0.632646 0.133929 0.000000
C249  C     C_3   0.165495 0.662072 0.660576 0.000000
C250  C     C_R   0.157294 0.637442 0.639729 0.000000
C251  C     C_R   0.165491 0.576795 0.637994 0.000000
C252  C     C_R   0.158620 0.552432 0.618747 0.000000
C253  C     C_R   0.143806 0.589882 0.601559 0.000000
N63   N     N_R   0.134935 0.576572 0.581463 0.000000
C254  C     C_R   0.102742 0.634188 0.573408 0.000000
N64   N     N_R   0.105279 0.680496 0.586177 0.000000
C255  C     C_R   0.129836 0.650608 0.603890 0.000000
C256  C     C_R   0.139014 0.675380 0.622421 0.000000
S32   S     S_3+2 0.030911 0.645713 0.563144 0.000000
O94   O     O_2   0.035159 0.583375 0.555611 0.000000
O95   O     O_2   0.009895 0.682355 0.542895 0.000000
O96   O     O_3   0.968800 0.673793 0.580527 0.000000
H218  H     H_    0.133495 0.658953 0.672714 0.000000
H219  H     H_    0.156467 0.711032 0.659304 0.000000
H220  H     H_    0.212773 0.634332 0.665471 0.000000
H221  H     H_    0.177398 0.548293 0.651794 0.000000
H222  H     H_    0.162463 0.506504 0.617636 0.000000
H223  H     H_    0.129309 0.723519 0.623638 0.000000
H224  H     H_    0.969193 0.636488 0.586880 0.000000
C257  C     C_3   0.190397 0.956232 0.565785 0.000000
C258  C     C_R   0.207897 0.909233 0.582462 0.000000
C259  C     C_R   0.163052 0.914499 0.597241 0.000000
C260  C     C_R   0.155739 0.862847 0.601456 0.000000
C261  C     C_R   0.196901 0.808725 0.591844 0.000000
N65   N     N_R   0.185631 0.762657 0.584739 0.000000
C262  C     C_R   0.240155 0.723815 0.574556 0.000000
N66   N     N_R   0.283368 0.745362 0.574134 0.000000
C263  C     C_R   0.252025 0.801398 0.583798 0.000000
C264  C     C_R   0.258422 0.852737 0.578642 0.000000
S33   S     S_3+2 0.244570 0.663773 0.558015 0.000000
O97   O     O_2   0.198579 0.689490 0.540789 0.000000
O98   O     O_2   0.220541 0.624670 0.569898 0.000000
O99   O     O_3   0.308745 0.612414 0.545075 0.000000
H225  H     H_    0.161228 0.948461 0.554378 0.000000
H226  H     H_    0.231326 0.951407 0.556719 0.000000
H227  H     H_    0.162678 0.003115 0.572830 0.000000
H228  H     H_    0.127114 0.959314 0.601941 0.000000
H229  H     H_    0.116132 0.866213 0.610033 0.000000
H230  H     H_    0.294707 0.847747 0.567748 0.000000
H231  H     H_    0.294311 0.608808 0.530974 0.000000
C265  C     C_3   0.216956 0.158439 0.045356 0.000000
C266  C     C_R   0.240732 0.119703 0.064234 0.000000
C267  C     C_R   0.300115 0.073617 0.064373 0.000000
C268  C     C_R   0.327082 0.048561 0.083158 0.000000
C269  C     C_R   0.294037 0.073856 0.101710 0.000000
N67   N     N_R   0.316709 0.078866 0.120629 0.000000
C270  C     C_R   0.269350 0.128910 0.129756 0.000000
N68   N     N_R   0.216742 0.150416 0.119222 0.000000
C271  C     C_R   0.233899 0.116156 0.101187 0.000000
C272  C     C_R   0.205367 0.136527 0.082596 0.000000
S34   S     S_3+2 0.289061 0.176333 0.143626 0.000000
O100  O     O_2   0.334403 0.149267 0.124941 0.000000
O101  O     O_2   0.340597 0.138653 0.157715 0.000000
O102  O     O_3   0.297004 0.239742 0.136293 0.000000
H232  H     H_    0.252824 0.144995 0.032552 0.000000
H233  H     H_    0.202660 0.207515 0.050018 0.000000
H234  H     H_    0.176865 0.154003 0.039700 0.000000
H235  H     H_    0.326517 0.059943 0.049759 0.000000
H236  H     H_    0.374876 0.017725 0.083058 0.000000
H237  H     H_    0.161736 0.176219 0.082543 0.000000
H238  H     H_    0.339004 0.223258 0.130393 0.000000
C273  C     C_3   0.948992 0.534176 0.127546 0.000000
C274  C     C_R   0.996529 0.470458 0.131359 0.000000
C275  C     C_R   0.980901 0.422158 0.131155 0.000000
C276  C     C_R   0.025617 0.361816 0.131111 0.000000
C277  C     C_R   0.084683 0.352334 0.130362 0.000000
N69   N     N_R   0.131738 0.301618 0.122300 0.000000
C278  C     C_R   0.176258 0.320236 0.119204 0.000000
N70   N     N_R   0.160503 0.378715 0.127602 0.000000
C279  C     C_R   0.100750 0.398808 0.132965 0.000000
C280  C     C_R   0.056640 0.458940 0.133081 0.000000
S35   S     S_3+2 0.224331 0.292317 0.096027 0.000000
O103  O     O_2   0.244606 0.224185 0.090877 0.000000
O104  O     O_2   0.285284 0.291077 0.099397 0.000000
O105  O     O_3   0.201199 0.328089 0.072505 0.000000
H239  H     H_    0.931509 0.535290 0.111433 0.000000
H240  H     H_    0.968258 0.567539 0.128595 0.000000
H241  H     H_    0.910903 0.547554 0.139472 0.000000
H242  H     H_    0.933957 0.431532 0.129808 0.000000
H243  H     H_    0.014610 0.323717 0.129080 0.000000
H244  H     H_    0.069382 0.494726 0.129955 0.000000
H245  H     H_    0.216012 0.359800 0.072607 0.000000
C281  C     C_3   0.190382 0.953061 0.293418 0.000000
C282  C     C_R   0.256802 0.933155 0.290770 0.000000
C283  C     C_R   0.293992 0.905905 0.307489 0.000000
C284  C     C_R   0.355830 0.886791 0.305302 0.000000
C285  C     C_R   0.380085 0.891184 0.285882 0.000000
N71   N     N_R   0.439045 0.875670 0.280593 0.000000
C286  C     C_R   0.431376 0.913422 0.263321 0.000000
N72   N     N_R   0.372217 0.950142 0.258019 0.000000
C287  C     C_R   0.341814 0.930294 0.271502 0.000000
C288  C     C_R   0.280644 0.947691 0.272732 0.000000
S36   S     S_3+2 0.484856 0.935646 0.254589 0.000000
O106  O     O_2   0.549259 0.894093 0.260528 0.000000
O107  O     O_2   0.470210 0.995083 0.267392 0.000000
O108  O     O_3   0.489597 0.950604 0.228524 0.000000
H246  H     H_    0.182474 0.912035 0.296051 0.000000
H247  H     H_    0.166962 0.976433 0.279030 0.000000
H248  H     H_    0.171747 0.985597 0.307357 0.000000
H249  H     H_    0.274395 0.901069 0.322525 0.000000
H250  H     H_    0.382673 0.874935 0.319095 0.000000
H251  H     H_    0.251717 0.974245 0.260529 0.000000
H252  H     H_    0.533163 0.926216 0.224410 0.000000
C289  C     C_3   0.539930 0.809349 0.533087 0.000000
C290  C     C_R   0.521483 0.797470 0.554628 0.000000
C291  C     C_R   0.554554 0.797734 0.571956 0.000000
C292  C     C_R   0.532293 0.796170 0.592208 0.000000
C293  C     C_R   0.481701 0.786662 0.594556 0.000000
N73   N     N_R   0.448308 0.791189 0.612460 0.000000
C294  C     C_R   0.408035 0.769804 0.605132 0.000000
N74   N     N_R   0.413595 0.756810 0.583476 0.000000
C295  C     C_R   0.457587 0.772732 0.577398 0.000000
C296  C     C_R   0.470547 0.787931 0.557590 0.000000
S37   S     S_3+2 0.357625 0.752104 0.621526 0.000000
O109  O     O_2   0.383974 0.720386 0.642263 0.000000
O110  O     O_2   0.347454 0.700926 0.610428 0.000000
O111  O     O_3   0.285283 0.807473 0.627220 0.000000
H253  H     H_    0.540077 0.855040 0.533265 0.000000
H254  H     H_    0.507916 0.808846 0.521165 0.000000
H255  H     H_    0.586295 0.773163 0.528617 0.000000
H256  H     H_    0.594870 0.804381 0.569792 0.000000
H257  H     H_    0.556655 0.798187 0.605537 0.000000
H258  H     H_    0.440172 0.796077 0.544960 0.000000
H259  H     H_    0.284878 0.845811 0.621886 0.000000
C297  C     C_3   0.723309 0.156978 0.007990 0.000000
C298  C     C_R   0.773139 0.167940 0.016838 0.000000
C299  C     C_R   0.806977 0.133102 0.033329 0.000000
C300  C     C_R   0.848104 0.148520 0.043018 0.000000
C301  C     C_R   0.862744 0.190622 0.033485 0.000000
N75   N     N_R   0.912982 0.197220 0.037126 0.000000
C302  C     C_R   0.919656 0.221815 0.017488 0.000000
N76   N     N_R   0.870715 0.237744 0.003980 0.000000
C303  C     C_R   0.836693 0.216753 0.015020 0.000000
C304  C     C_R   0.786996 0.212143 0.008111 0.000000
S38   S     S_3+2 0.992736 0.207459 0.006031 0.000000
O112  O     O_2   0.028795 0.138492 0.000128 0.000000
O113  O     O_2   0.035552 0.216974 0.021159 0.000000
O114  O     O_3   0.998217 0.241787 0.983068 0.000000
H260  H     H_    0.719296 0.118729 0.016183 0.000000
H261  H     H_    0.732957 0.144615 0.990843 0.000000
H262  H     H_    0.679895 0.199820 0.009979 0.000000
H263  H     H_    0.799830 0.095290 0.039343 0.000000
H264  H     H_    0.873484 0.122621 0.055993 0.000000
H265  H     H_    0.760079 0.241983 0.996189 0.000000
H266  H     H_    0.027985 0.257694 0.986008 0.000000
C305  C     C_3   0.739402 0.094311 0.911400 0.000000
C306  C     C_R   0.777392 0.116377 0.923290 0.000000
C307  C     C_R   0.756589 0.146285 0.942897 0.000000
C308  C     C_R   0.789886 0.170335 0.953522 0.000000
C309  C     C_R   0.844295 0.162712 0.944540 0.000000
N77   N     N_R   0.880456 0.188291 0.950562 0.000000
C310  C     C_R   0.932096 0.154704 0.937474 0.000000
N78   N     N_R   0.926331 0.113470 0.923191 0.000000
C311  C     C_R   0.868357 0.125090 0.927055 0.000000
C312  C     C_R   0.834202 0.105423 0.915214 0.000000
S39   S     S_3+2 0.999022 0.165570 0.937458 0.000000
O115  O     O_2   0.986104 0.233422 0.940081 0.000000
O116  O     O_2   0.028737 0.150614 0.915034 0.000000
O117  O     O_3   0.057189 0.124493 0.953808 0.000000
H267  H     H_    0.729284 0.062322 0.921292 0.000000
H268  H     H_    0.764429 0.069756 0.896604 0.000000
H269  H     H_    0.696342 0.134364 0.907430 0.000000
H270  H     H_    0.712468 0.154198 0.949337 0.000000
H271  H     H_    0.770356 0.198592 0.967304 0.000000
H272  H     H_    0.852525 0.079907 0.900540 0.000000
H273  H     H_    0.088076 0.091468 0.944435 0.000000
C313  C     C_3   0.967817 0.479056 0.000190 0.000000
C314  C     C_R   0.942534 0.439823 0.990369 0.000000
C315  C     C_R   0.928028 0.401806 0.003168 0.000000
C316  C     C_R   0.905417 0.363844 0.994537 0.000000
C317  C     C_R   0.898489 0.364076 0.972941 0.000000
N79   N     N_R   0.877146 0.331371 0.961154 0.000000
C318  C     C_R   0.875275 0.355310 0.941236 0.000000
N80   N     N_R   0.894985 0.400663 0.940380 0.000000
C319  C     C_R   0.910266 0.403654 0.960553 0.000000
C320  C     C_R   0.933198 0.441379 0.968744 0.000000
S40   S     S_3+2 0.841391 0.334629 0.919831 0.000000
O118  O     O_2   0.860663 0.265490 0.918478 0.000000
O119  O     O_2   0.862453 0.342435 0.897667 0.000000
O120  O     O_3   0.763973 0.370326 0.919375 0.000000
H274  H     H_    0.934395 0.511532 0.012189 0.000000
H275  H     H_    0.978141 0.505627 0.987908 0.000000
H276  H     H_    0.010169 0.448875 0.008071 0.000000
H277  H     H_    0.934817 0.401583 0.020068 0.000000
H278  H     H_    0.894634 0.334701 0.004650 0.000000
H279  H     H_    0.943259 0.471421 0.958662 0.000000
H280  H     H_    0.751136 0.404333 0.930246 0.000000
C321  C     C_3   0.575189 0.310806 0.913716 0.000000
C322  C     C_R   0.622983 0.316066 0.926167 0.000000
C323  C     C_R   0.683145 0.283237 0.919605 0.000000
C324  C     C_R   0.728123 0.283573 0.932082 0.000000
C325  C     C_R   0.712493 0.318777 0.950765 0.000000
N81   N     N_R   0.747465 0.322082 0.966768 0.000000
C326  C     C_R   0.704315 0.370757 0.979159 0.000000
N82   N     N_R   0.646338 0.398464 0.970902 0.000000
C327  C     C_R   0.653161 0.360371 0.954321 0.000000
C328  C     C_R   0.607779 0.354656 0.943997 0.000000
S41   S     S_3+2 0.718671 0.382088 0.006101 0.000000
O121  O     O_2   0.688309 0.449261 0.014159 0.000000
O122  O     O_2   0.785639 0.365469 0.008763 0.000000
O123  O     O_3   0.702416 0.341446 0.025173 0.000000
H281  H     H_    0.577856 0.324775 0.897162 0.000000
H282  H     H_    0.530039 0.341621 0.921049 0.000000
H283  H     H_    0.581939 0.262341 0.913598 0.000000
H284  H     H_    0.695382 0.254687 0.905182 0.000000
H285  H     H_    0.773676 0.256966 0.926542 0.000000
H286  H     H_    0.561820 0.377831 0.950259 0.000000
H287  H     H_    0.738065 0.326070 0.034249 0.000000
C329  C     C_3   0.869660 0.065486 0.379539 0.000000
C330  C     C_R   0.813960 0.098838 0.367468 0.000000
C331  C     C_R   0.811026 0.077993 0.347190 0.000000
C332  C     C_R   0.761203 0.110580 0.335265 0.000000
C333  C     C_R   0.714806 0.164788 0.343898 0.000000
N83   N     N_R   0.664372 0.206315 0.334403 0.000000
C334  C     C_R   0.631815 0.244590 0.351857 0.000000
N84   N     N_R   0.664672 0.232653 0.370487 0.000000
C335  C     C_R   0.715889 0.181973 0.364486 0.000000
C336  C     C_R   0.765912 0.151080 0.376237 0.000000
S42   S     S_3+2 0.549917 0.278877 0.352963 0.000000
O124  O     O_2   0.517445 0.347731 0.348189 0.000000
O125  O     O_2   0.525143 0.278229 0.375596 0.000000
O126  O     O_3   0.515664 0.245589 0.337491 0.000000
H288  H     H_    0.876488 0.017654 0.382099 0.000000
H289  H     H_    0.865256 0.089373 0.395135 0.000000
H290  H     H_    0.909312 0.064124 0.370319 0.000000
H291  H     H_    0.849290 0.037859 0.340203 0.000000
H292  H     H_    0.763451 0.097156 0.318825 0.000000
H293  H     H_    0.769198 0.168705 0.391378 0.000000
H294  H     H_    0.489771 0.236172 0.347662 0.000000
C337  C     C_3   0.411099 0.484424 0.284274 0.000000
C338  C     C_R   0.453401 0.417567 0.285806 0.000000
C339  C     C_R   0.498966 0.399224 0.300273 0.000000
C340  C     C_R   0.539459 0.337535 0.301519 0.000000
C341  C     C_R   0.532170 0.295618 0.288751 0.000000
N85   N     N_R   0.565598 0.234230 0.288554 0.000000
C342  C     C_R   0.531538 0.214898 0.276101 0.000000
N86   N     N_R   0.480674 0.261845 0.267449 0.000000
C343  C     C_R   0.483857 0.312359 0.275859 0.000000
C344  C     C_R   0.445733 0.373910 0.273485 0.000000
S43   S     S_3+2 0.536059 0.142812 0.281096 0.000000
O127  O     O_2   0.552212 0.135367 0.304429 0.000000
O128  O     O_2   0.591424 0.087319 0.271038 0.000000
O129  O     O_3   0.474092 0.129240 0.281724 0.000000
H295  H     H_    0.387712 0.502841 0.299989 0.000000
H296  H     H_    0.376720 0.491283 0.272291 0.000000
H297  H     H_    0.437314 0.509676 0.279518 0.000000
H298  H     H_    0.503547 0.433298 0.310384 0.000000
H299  H     H_    0.574728 0.322123 0.312807 0.000000
H300  H     H_    0.407960 0.388407 0.263663 0.000000
H301  H     H_    0.446902 0.158833 0.292866 0.000000
C345  C     C_3   0.803090 0.916088 0.235197 0.000000
C346  C     C_R   0.772323 0.964181 0.252354 0.000000
C347  C     C_R   0.764369 0.023962 0.249426 0.000000
C348  C     C_R   0.735983 0.069537 0.265129 0.000000
C349  C     C_R   0.714973 0.054332 0.283449 0.000000
N87   N     N_R   0.683190 0.091761 0.300153 0.000000
C350  C     C_R   0.678744 0.049865 0.314201 0.000000
N88   N     N_R   0.705396 0.989196 0.306311 0.000000
C351  C     C_R   0.725652 0.994863 0.286741 0.000000
C352  C     C_R   0.752807 0.949238 0.271267 0.000000
S44   S     S_3+2 0.635849 0.071645 0.339315 0.000000
O130  O     O_2   0.620716 0.136946 0.346220 0.000000
O131  O     O_2   0.670781 0.037840 0.358626 0.000000
O132  O     O_3   0.564264 0.078214 0.341571 0.000000
H302  H     H_    0.776806 0.930169 0.220565 0.000000
H303  H     H_    0.806238 0.871041 0.240144 0.000000
H304  H     H_    0.849510 0.911185 0.231878 0.000000
H305  H     H_    0.780221 0.035075 0.234682 0.000000
H306  H     H_    0.731793 0.114957 0.262965 0.000000
H307  H     H_    0.759357 0.903119 0.273962 0.000000
H308  H     H_    0.539630 0.119840 0.348159 0.000000
C353  C     C_3   0.936266 0.208176 0.293865 0.000000
C354  C     C_R   0.874739 0.212714 0.291528 0.000000
C355  C     C_R   0.848788 0.194133 0.307659 0.000000
C356  C     C_R   0.792173 0.197728 0.305260 0.000000
C357  C     C_R   0.763748 0.214750 0.286610 0.000000
N89   N     N_R   0.710690 0.216016 0.281019 0.000000
C358  C     C_R   0.705271 0.240547 0.260799 0.000000
N90   N     N_R   0.750957 0.257421 0.254715 0.000000
C359  C     C_R   0.787194 0.237741 0.271373 0.000000
C360  C     C_R   0.841652 0.238690 0.273966 0.000000
S45   S     S_3+2 0.651058 0.238799 0.242901 0.000000
O133  O     O_2   0.637905 0.183281 0.246176 0.000000
O134  O     O_2   0.678580 0.224758 0.220156 0.000000
O135  O     O_3   0.581159 0.300758 0.241388 0.000000
H309  H     H_    0.935285 0.236638 0.307948 0.000000
H310  H     H_    0.950703 0.224568 0.279455 0.000000
H311  H     H_    0.969014 0.159297 0.296182 0.000000
H312  H     H_    0.871397 0.179414 0.322473 0.000000
H313  H     H_    0.768642 0.194134 0.318466 0.000000
H314  H     H_    0.858409 0.259238 0.262749 0.000000
H315  H     H_    0.579576 0.328427 0.253378 0.000000
C361  C     C_3   0.781348 0.299948 0.564996 0.000000
C362  C     C_R   0.797365 0.244561 0.578098 0.000000
C363  C     C_R   0.837151 0.233457 0.594447 0.000000
C364  C     C_R   0.854133 0.181425 0.606519 0.000000
C365  C     C_R   0.831983 0.139785 0.601575 0.000000
N91   N     N_R   0.843598 0.085093 0.610663 0.000000
C366  C     C_R   0.797351 0.074323 0.602664 0.000000
N92   N     N_R   0.762246 0.116145 0.587315 0.000000
C367  C     C_R   0.787310 0.155198 0.587065 0.000000
C368  C     C_R   0.771098 0.205536 0.574574 0.000000
S46   S     S_3+2 0.777903 0.023146 0.617299 0.000000
O136  O     O_2   0.710280 0.043555 0.621464 0.000000
O137  O     O_2   0.795518 0.027280 0.640186 0.000000
O138  O     O_3   0.811909 0.945420 0.611300 0.000000
H316  H     H_    0.760849 0.342168 0.575463 0.000000
H317  H     H_    0.748491 0.302396 0.552939 0.000000
H318  H     H_    0.823051 0.297013 0.556795 0.000000
H319  H     H_    0.855885 0.265311 0.597629 0.000000
H320  H     H_    0.885402 0.173963 0.618998 0.000000
H321  H     H_    0.737164 0.215256 0.562926 0.000000
H322  H     H_    0.841718 0.940004 0.599555 0.000000
C369  C     C_3   0.971841 0.156195 0.561570 0.000000
C370  C     C_R   0.999425 0.133758 0.582388 0.000000
C371  C     C_R   0.044877 0.147402 0.589174 0.000000
C372  C     C_R   0.073380 0.123712 0.607790 0.000000
C373  C     C_R   0.054917 0.087438 0.619783 0.000000
N93   N     N_R   0.079714 0.055048 0.637349 0.000000
C374  C     C_R   0.039585 0.030109 0.641940 0.000000
N94   N     N_R   0.991436 0.047674 0.628775 0.000000
C375  C     C_R   0.005056 0.080538 0.614286 0.000000
C376  C     C_R   0.979743 0.099608 0.594981 0.000000
S47   S     S_3+2 0.051529 0.969522 0.659285 0.000000
O139  O     O_2   0.104678 0.906299 0.653137 0.000000
O140  O     O_2   0.001084 0.952373 0.654465 0.000000
O141  O     O_3   0.043286 0.980604 0.686417 0.000000
H323  H     H_    0.951324 0.207390 0.561745 0.000000
H324  H     H_    0.936118 0.141401 0.558589 0.000000
H325  H     H_    0.007595 0.136945 0.548666 0.000000
H326  H     H_    0.059673 0.175050 0.579524 0.000000
H327  H     H_    0.109379 0.134099 0.612111 0.000000
H328  H     H_    0.946012 0.087325 0.589485 0.000000
H329  H     H_    0.004913 0.018975 0.688831 0.000000
C377  C     C_3   0.937879 0.721027 0.638462 0.000000
C378  C     C_R   0.944469 0.778175 0.634546 0.000000
C379  C     C_R   0.902445 0.833745 0.643832 0.000000
C380  C     C_R   0.906381 0.887663 0.639686 0.000000
C381  C     C_R   0.952000 0.884940 0.625994 0.000000
N95   N     N_R   0.958639 0.932869 0.618084 0.000000
C382  C     C_R   0.002970 0.904616 0.602128 0.000000
N96   N     N_R   0.028968 0.840167 0.601691 0.000000
C383  C     C_R   0.993763 0.830345 0.616734 0.000000
C384  C     C_R   0.990926 0.776080 0.621135 0.000000
S48   S     S_3+2 0.002498 0.948110 0.579282 0.000000
O142  O     O_2   0.937848 0.999445 0.576842 0.000000
O143  O     O_2   0.009026 0.912014 0.558566 0.000000
O144  O     O_3   0.048989 0.982537 0.575234 0.000000
H330  H     H_    0.937991 0.713807 0.655782 0.000000
H331  H     H_    0.975767 0.680346 0.630420 0.000000
H332  H     H_    0.894178 0.726344 0.632286 0.000000
H333  H     H_    0.866468 0.835022 0.654397 0.000000
H334  H     H_    0.874683 0.930243 0.647319 0.000000
H335  H     H_    0.020332 0.733496 0.613134 0.000000
H336  H     H_    0.047307 0.990340 0.559807 0.000000
C385  C     C_3   0.806401 0.251954 0.660161 0.000000
C386  C     C_R   0.827056 0.194350 0.672367 0.000000
C387  C     C_R   0.823115 0.197006 0.694410 0.000000
C388  C     C_R   0.837053 0.143813 0.705496 0.000000
C389  C     C_R   0.851347 0.089718 0.694556 0.000000
N97   N     N_R   0.866334 0.033773 0.702748 0.000000
C390  C     C_R   0.893232 0.995337 0.684555 0.000000
N98   N     N_R   0.890246 0.027432 0.665500 0.000000
C391  C     C_R   0.862640 0.086080 0.673097 0.000000
C392  C     C_R   0.849948 0.137658 0.661690 0.000000
S49   S     S_3+2 0.941574 0.913188 0.687945 0.000000
O145  O     O_2   0.914893 0.882103 0.703214 0.000000
O146  O     O_2   0.991018 0.912794 0.702021 0.000000
O147  O     O_3   0.988190 0.856834 0.669929 0.000000
H337  H     H_    0.766969 0.257471 0.650790 0.000000
H338  H     H_    0.843323 0.248849 0.649073 0.000000
H339  H     H_    0.792804 0.292684 0.671124 0.000000
H340  H     H_    0.809600 0.240382 0.703057 0.000000
H341  H     H_    0.843193 0.143211 0.722045 0.000000
H342  H     H_    0.856863 0.133655 0.644873 0.000000
H343  H     H_    0.029488 0.843046 0.675283 0.000000
C393  C     C_3   0.856252 0.398472 0.063373 0.000000
C394  C     C_R   0.844806 0.362162 0.080276 0.000000
C395  C     C_R   0.803967 0.393645 0.096930 0.000000
C396  C     C_R   0.783706 0.362292 0.110579 0.000000
C397  C     C_R   0.804173 0.300120 0.107076 0.000000
N99   N     N_R   0.778906 0.265225 0.114831 0.000000
C398  C     C_R   0.816836 0.207730 0.105463 0.000000
N100  N     N_R   0.862223 0.207346 0.091057 0.000000
C399  C     C_R   0.849760 0.267681 0.092354 0.000000
C400  C     C_R   0.871129 0.298050 0.078685 0.000000
S50   S     S_3+2 0.808668 0.141813 0.114490 0.000000
O148  O     O_2   0.761141 0.163204 0.133021 0.000000
O149  O     O_2   0.864190 0.095938 0.126053 0.000000
O150  O     O_3   0.785148 0.099632 0.098291 0.000000
H344  H     H_    0.812176 0.431202 0.057049 0.000000
H345  H     H_    0.884522 0.367433 0.050095 0.000000
H346  H     H_    0.878773 0.425123 0.070065 0.000000
H347  H     H_    0.784754 0.443440 0.098408 0.000000
H348  H     H_    0.749985 0.386640 0.122689 0.000000
H349  H     H_    0.903890 0.273481 0.066049 0.000000
H350  H     H_    0.753129 0.095215 0.106904 0.000000
C401  C     C_3   0.590055 0.630127 0.144858 0.000000
C402  C     C_R   0.600446 0.565649 0.139903 0.000000
C403  C     C_R   0.647269 0.517062 0.149141 0.000000
C404  C     C_R   0.656207 0.457424 0.145174 0.000000
C405  C     C_R   0.623800 0.447051 0.129519 0.000000
N101  N     N_R   0.639089 0.392829 0.119381 0.000000
C406  C     C_R   0.609149 0.410854 0.100444 0.000000
N102  N     N_R   0.568600 0.473521 0.100190 0.000000
C407  C     C_R   0.581457 0.494346 0.118710 0.000000
C408  C     C_R   0.566081 0.554083 0.125154 0.000000
S51   S     S_3+2 0.648660 0.372004 0.076195 0.000000
O151  O     O_2   0.715817 0.333203 0.079715 0.000000
O152  O     O_2   0.653647 0.417773 0.060657 0.000000
O153  O     O_3   0.631663 0.322167 0.061767 0.000000
H351  H     H_    0.575434 0.642500 0.161806 0.000000
H352  H     H_    0.554591 0.663188 0.134824 0.000000
H353  H     H_    0.632880 0.633615 0.141685 0.000000
H354  H     H_    0.675682 0.525821 0.160110 0.000000
H355  H     H_    0.692647 0.420009 0.152643 0.000000
H356  H     H_    0.531628 0.591640 0.117986 0.000000
H357  H     H_    0.603491 0.315084 0.071507 0.000000
C409  C     C_3   0.536226 0.442506 0.232351 0.000000
C410  C     C_R   0.578775 0.405795 0.214415 0.000000
C411  C     C_R   0.559969 0.416427 0.193698 0.000000
C412  C     C_R   0.598710 0.385534 0.176411 0.000000
C413  C     C_R   0.658080 0.347048 0.180493 0.000000
N103  N     N_R   0.705146 0.317386 0.166361 0.000000
C414  C     C_R   0.753588 0.294618 0.179672 0.000000
N104  N     N_R   0.738026 0.308569 0.201255 0.000000
C415  C     C_R   0.677248 0.339049 0.200917 0.000000
C416  C     C_R   0.638239 0.365450 0.218180 0.000000
S52   S     S_3+2 0.828849 0.257489 0.169088 0.000000
O154  O     O_2   0.836727 0.209501 0.151669 0.000000
O155  O     O_2   0.873640 0.216784 0.185117 0.000000
O156  O     O_3   0.857714 0.303642 0.158202 0.000000
H358  H     H_    0.560992 0.435690 0.247267 0.000000
H359  H     H_    0.500035 0.427697 0.234581 0.000000
H360  H     H_    0.515212 0.492286 0.228791 0.000000
H361  H     H_    0.515746 0.452744 0.191198 0.000000
H362  H     H_    0.583141 0.393897 0.160394 0.000000
H363  H     H_    0.655009 0.359198 0.234070 0.000000
H364  H     H_    0.821745 0.343895 0.156610 0.000000
C417  C     C_3   0.683125 0.179032 0.059175 0.000000
C418  C     C_R   0.653146 0.190904 0.080362 0.000000
C419  C     C_R   0.613213 0.166650 0.084685 0.000000
C420  C     C_R   0.580758 0.181209 0.103718 0.000000
C421  C     C_R   0.585479 0.223588 0.117144 0.000000
N105  N     N_R   0.557743 0.243519 0.136385 0.000000
C422  C     C_R   0.595885 0.262834 0.146143 0.000000
N106  N     N_R   0.638768 0.265783 0.132061 0.000000
C423  C     C_R   0.631050 0.239663 0.114208 0.000000
C424  C     C_R   0.665452 0.224811 0.095710 0.000000
S53   S     S_3+2 0.618229 0.236547 0.172504 0.000000
O157  O     O_2   0.601195 0.184792 0.178057 0.000000
O158  O     O_2   0.585063 0.282903 0.190885 0.000000
O159  O     O_3   0.694239 0.204336 0.177292 0.000000
H365  H     H_    0.708279 0.128393 0.056378 0.000000
H366  H     H_    0.713627 0.201327 0.058496 0.000000
H367  H     H_    0.647897 0.199175 0.047217 0.000000
H368  H     H_    0.607441 0.136358 0.073141 0.000000
H369  H     H_    0.553483 0.158933 0.107943 0.000000
H370  H     H_    0.699842 0.239985 0.093094 0.000000
H371  H     H_    0.708142 0.159253 0.175548 0.000000
C425  C     C_3   0.186418 0.888062 0.851119 0.000000
C426  C     C_R   0.130925 0.944988 0.846414 0.000000
C427  C     C_R   0.120318 0.963381 0.825690 0.000000
C428  C     C_R   0.068103 0.014919 0.821098 0.000000
C429  C     C_R   0.029504 0.050338 0.837506 0.000000
N107  N     N_R   0.975190 0.099685 0.835642 0.000000
C430  C     C_R   0.948196 0.102419 0.855758 0.000000
N108  N     N_R   0.986880 0.061512 0.870393 0.000000
C431  C     C_R   0.037320 0.029646 0.857778 0.000000
C432  C     C_R   0.087744 0.976659 0.862364 0.000000
S54   S     S_3+2 0.868239 0.128425 0.858089 0.000000
O160  O     O_2   0.838594 0.156238 0.837215 0.000000
O161  O     O_2   0.834261 0.181766 0.874404 0.000000
O162  O     O_3   0.843709 0.073684 0.862807 0.000000
H372  H     H_    0.186642 0.848040 0.842228 0.000000
H373  H     H_    0.187481 0.879705 0.868417 0.000000
H374  H     H_    0.226994 0.893873 0.846095 0.000000
H375  H     H_    0.151327 0.935827 0.812917 0.000000
H376  H     H_    0.056658 0.024035 0.804832 0.000000
H377  H     H_    0.091790 0.957601 0.877729 0.000000
H378  H     H_    0.858179 0.045748 0.850039 0.000000
C433  C     C_3   0.727064 0.331596 0.783835 0.000000
C434  C     C_R   0.763022 0.266257 0.776134 0.000000
C435  C     C_R   0.741963 0.243170 0.759752 0.000000
C436  C     C_R   0.773028 0.181815 0.753104 0.000000
C437  C     C_R   0.826901 0.144494 0.762429 0.000000
N109  N     N_R   0.861613 0.082279 0.759692 0.000000
C438  C     C_R   0.904233 0.071899 0.775394 0.000000
N110  N     N_R   0.900756 0.124788 0.785291 0.000000
C439  C     C_R   0.849102 0.168645 0.777775 0.000000
C440  C     C_R   0.816581 0.228444 0.785518 0.000000
S55   S     S_3+2 0.941532 0.002923 0.789254 0.000000
O163  O     O_2   0.908395 0.962808 0.790423 0.000000
O164  O     O_2   0.932269 0.025531 0.812535 0.000000
O165  O     O_3   0.018160 0.956039 0.787171 0.000000
H379  H     H_    0.722048 0.362776 0.770516 0.000000
H380  H     H_    0.750276 0.342603 0.796885 0.000000
H381  H     H_    0.681485 0.338757 0.789764 0.000000
H382  H     H_    0.699910 0.272853 0.752519 0.000000
H383  H     H_    0.755019 0.164550 0.740676 0.000000
H384  H     H_    0.830224 0.244720 0.799321 0.000000
H385  H     H_    0.026655 0.929492 0.799661 0.000000
C441  C     C_3   0.916254 0.258033 0.728466 0.000000
C442  C     C_R   0.919518 0.281615 0.750095 0.000000
C443  C     C_R   0.902144 0.344142 0.753546 0.000000
C444  C     C_R   0.897754 0.367558 0.773980 0.000000
C445  C     C_R   0.911201 0.327701 0.790299 0.000000
N111  N     N_R   0.901076 0.343221 0.810942 0.000000
C446  C     C_R   0.908083 0.288857 0.820042 0.000000
N112  N     N_R   0.929409 0.239071 0.805800 0.000000
C447  C     C_R   0.928834 0.266512 0.787165 0.000000
C448  C     C_R   0.934542 0.242087 0.767025 0.000000
S56   S     S_3+2 0.867397 0.289480 0.844133 0.000000
O166  O     O_2   0.839994 0.353072 0.855479 0.000000
O167  O     O_2   0.907186 0.247581 0.861266 0.000000
O168  O     O_3   0.805796 0.274931 0.842310 0.000000
H386  H     H_    0.885006 0.236464 0.729180 0.000000
H387  H     H_    0.961829 0.223305 0.722891 0.000000
H388  H     H_    0.899300 0.296202 0.717142 0.000000
H389  H     H_    0.888740 0.375401 0.740489 0.000000
H390  H     H_    0.878177 0.416251 0.777278 0.000000
H391  H     H_    0.944502 0.194904 0.764803 0.000000
H392  H     H_    0.770903 0.316192 0.841080 0.000000
C449  C     C_3   0.259307 0.086778 0.828035 0.000000
C450  C     C_R   0.201048 0.096159 0.818702 0.000000
C451  C     C_R   0.146915 0.124839 0.830695 0.000000
C452  C     C_R   0.091718 0.134227 0.822520 0.000000
C453  C     C_R   0.092279 0.115945 0.801742 0.000000
N113  N     N_R   0.045698 0.117560 0.790338 0.000000
C454  C     C_R   0.073677 0.097332 0.770419 0.000000
N114  N     N_R   0.134900 0.083671 0.769592 0.000000
C455  C     C_R   0.144886 0.092930 0.789675 0.000000
C456  C     C_R   0.200075 0.080527 0.797641 0.000000
S57   S     S_3+2 0.036127 0.084965 0.748022 0.000000
O169  O     O_2   0.069187 0.018768 0.739087 0.000000
O170  O     O_2   0.045680 0.119171 0.729414 0.000000
O171  O     O_3   0.961368 0.104050 0.745622 0.000000
H393  H     H_    0.256211 0.132092 0.833255 0.000000
H394  H     H_    0.297477 0.063942 0.816160 0.000000
H395  H     H_    0.268887 0.056666 0.841790 0.000000
H396  H     H_    0.148345 0.140513 0.846645 0.000000
H397  H     H_    0.049984 0.156003 0.832100 0.000000
H398  H     H_    0.240788 0.061460 0.787511 0.000000
H399  H     H_    0.952834 0.118402 0.730895 0.000000
C457  C     C_3   0.907399 0.048080 0.231111 0.000000
C458  C     C_R   0.927237 0.097559 0.229620 0.000000
C459  C     C_R   0.988867 0.081650 0.228376 0.000000
C460  C     C_R   0.008521 0.126790 0.226814 0.000000
C461  C     C_R   0.965912 0.187181 0.226969 0.000000
N115  N     N_R   0.975592 0.237424 0.224910 0.000000
C462  C     C_R   0.916239 0.284361 0.223843 0.000000
N116  N     N_R   0.872174 0.264158 0.226314 0.000000
C463  C     C_R   0.905544 0.202706 0.227740 0.000000
C464  C     C_R   0.884610 0.158949 0.229039 0.000000
S58   S     S_3+2 0.896728 0.361742 0.215611 0.000000
O172  O     O_2   0.930187 0.393707 0.226676 0.000000
O173  O     O_2   0.831934 0.406388 0.222420 0.000000
O174  O     O_3   0.895234 0.375932 0.189030 0.000000
H400  H     H_    0.925380 0.016328 0.216952 0.000000
H401  H     H_    0.857183 0.068825 0.231809 0.000000
H402  H     H_    0.924969 0.021833 0.245711 0.000000
H403  H     H_    0.021763 0.033521 0.228311 0.000000
H404  H     H_    0.055639 0.114972 0.224924 0.000000
H405  H     H_    0.836579 0.172101 0.229095 0.000000
H406  H     H_    0.851779 0.402185 0.186487 0.000000
C465  C     C_3   0.590837 0.531153 0.195346 0.000000
C466  C     C_R   0.624055 0.514820 0.215147 0.000000
C467  C     C_R   0.598419 0.554457 0.232393 0.000000
C468  C     C_R   0.630368 0.545044 0.250381 0.000000
C469  C     C_R   0.686447 0.495357 0.250632 0.000000
N117  N     N_R   0.728847 0.482860 0.265059 0.000000
C470  C     C_R   0.766924 0.421316 0.260863 0.000000
N118  N     N_R   0.750057 0.396216 0.243678 0.000000
C471  C     C_R   0.702361 0.447350 0.236644 0.000000
C472  C     C_R   0.677485 0.460277 0.216921 0.000000
S59   S     S_3+2 0.832730 0.382998 0.276358 0.000000
O175  O     O_2   0.854597 0.430869 0.282288 0.000000
O176  O     O_2   0.890497 0.336003 0.264517 0.000000
O177  O     O_3   0.827601 0.352811 0.300399 0.000000
H407  H     H_    0.542456 0.542818 0.198703 0.000000
H408  H     H_    0.610978 0.491123 0.184272 0.000000
H409  H     H_    0.593623 0.571983 0.188850 0.000000
H410  H     H_    0.555161 0.594835 0.231354 0.000000
H411  H     H_    0.610697 0.576483 0.263465 0.000000
H412  H     H_    0.699668 0.430861 0.203186 0.000000
H413  H     H_    0.861708 0.352421 0.308414 0.000000
C473  C     C_3   0.899691 0.225811 0.425874 0.000000
C474  C     C_R   0.858702 0.199868 0.433846 0.000000
C475  C     C_R   0.876542 0.159184 0.450441 0.000000
C476  C     C_R   0.841419 0.130849 0.456916 0.000000
C477  C     C_R   0.788254 0.145423 0.446875 0.000000
N119  N     N_R   0.752688 0.116932 0.448884 0.000000
C478  C     C_R   0.706709 0.149882 0.434889 0.000000
N120  N     N_R   0.712911 0.197446 0.424741 0.000000
C479  C     C_R   0.766993 0.190310 0.432103 0.000000
C480  C     C_R   0.803774 0.215367 0.424460 0.000000
S60   S     S_3+2 0.648933 0.128678 0.427567 0.000000
O178  O     O_2   0.610330 0.124959 0.446573 0.000000
O179  O     O_2   0.675459 0.062874 0.418208 0.000000
O180  O     O_3   0.599164 0.171623 0.408906 0.000000
H414  H     H_    0.909304 0.250436 0.439113 0.000000
H415  H     H_    0.878225 0.258576 0.413047 0.000000
H416  H     H_    0.942966 0.187598 0.419563 0.000000
H417  H     H_    0.919406 0.147432 0.457695 0.000000
H418  H     H_    0.856444 0.096679 0.468973 0.000000
H419  H     H_    0.791806 0.244169 0.410934 0.000000
H420  H     H_    0.617742 0.149753 0.395176 0.000000
C481  C     C_3   0.731341 0.865425 0.505323 0.000000
C482  C     C_R   0.722684 0.928076 0.512208 0.000000
C483  C     C_R   0.680740 0.959068 0.528398 0.000000
C484  C     C_R   0.674476 0.015030 0.536217 0.000000
C485  C     C_R   0.714089 0.037476 0.528975 0.000000
N121  N     N_R   0.717584 0.090239 0.534865 0.000000
C486  C     C_R   0.742110 0.101588 0.516109 0.000000
N122  N     N_R   0.757094 0.055919 0.500144 0.000000
C487  C     C_R   0.743497 0.014516 0.509916 0.000000
C488  C     C_R   0.754613 0.956472 0.502490 0.000000
S61   S     S_3+2 0.746572 0.172403 0.511668 0.000000
O181  O     O_2   0.700873 0.226361 0.525802 0.000000
O182  O     O_2   0.724497 0.196502 0.489575 0.000000
O183  O     O_3   0.814449 0.175534 0.513525 0.000000
H421  H     H_    0.751915 0.832819 0.518216 0.000000
H422  H     H_    0.760468 0.849653 0.490561 0.000000
H423  H     H_    0.687050 0.865901 0.502760 0.000000
H424  H     H_    0.651984 0.939875 0.534862 0.000000
H425  H     H_    0.636186 0.040200 0.546760 0.000000
H426  H     H_    0.786842 0.933945 0.489402 0.000000
H427  H     H_    0.818262 0.180924 0.528951 0.000000
C489  C     C_3   0.074766 0.898573 0.407212 0.000000
C490  C     C_R   0.020887 0.917656 0.422087 0.000000
C491  C     C_R   0.968702 0.970433 0.418003 0.000000
C492  C     C_R   0.918864 0.992368 0.432058 0.000000
C493  C     C_R   0.920898 0.959275 0.449864 0.000000
N123  N     N_R   0.880915 0.976949 0.466821 0.000000
C494  C     C_R   0.917731 0.941440 0.482672 0.000000
N124  N     N_R   0.974099 0.895412 0.475083 0.000000
C495  C     C_R   0.974320 0.909827 0.454559 0.000000
C496  C     C_R   0.024170 0.887229 0.440799 0.000000
S62   S     S_3+2 0.913607 0.979385 0.507882 0.000000
O184  O     O_2   0.898470 0.047313 0.504626 0.000000
O185  O     O_2   0.976990 0.956279 0.516894 0.000000
O186  O     O_3   0.866842 0.981277 0.528881 0.000000
H428  H     H_    0.068724 0.874946 0.392883 0.000000
H429  H     H_    0.116653 0.867577 0.415057 0.000000
H430  H     H_    0.079369 0.940147 0.402377 0.000000
H431  H     H_    0.968206 0.996462 0.404189 0.000000
H432  H     H_    0.881948 0.036753 0.429531 0.000000
H433  H     H_    0.065609 0.849601 0.445361 0.000000
H434  H     H_    0.858719 0.019598 0.537091 0.000000
C497  C     C_3   0.550871 0.035928 0.497865 0.000000
C498  C     C_R   0.603570 0.996896 0.483403 0.000000
C499  C     C_R   0.609459 0.939783 0.476653 0.000000
C500  C     C_R   0.653877 0.904470 0.461645 0.000000
C501  C     C_R   0.691147 0.927936 0.453428 0.000000
N125  N     N_R   0.730520 0.906701 0.436475 0.000000
C502  C     C_R   0.761012 0.942514 0.437970 0.000000
N126  N     N_R   0.741732 0.984239 0.454976 0.000000
C503  C     C_R   0.693186 0.977843 0.462861 0.000000
C504  C     C_R   0.646935 0.016060 0.477037 0.000000
S63   S     S_3+2 0.800481 0.955037 0.416170 0.000000
O187  O     O_2   0.868834 0.912061 0.413464 0.000000
O188  O     O_2   0.801764 0.015607 0.422085 0.000000
O189  O     O_3   0.768894 0.973939 0.391921 0.000000
H435  H     H_    0.525103 0.081727 0.490862 0.000000
H436  H     H_    0.566780 0.040498 0.513727 0.000000
H437  H     H_    0.520064 0.014155 0.499926 0.000000
H438  H     H_    0.577646 0.923357 0.482321 0.000000
H439  H     H_    0.655406 0.861782 0.455880 0.000000
H440  H     H_    0.644412 0.059257 0.483011 0.000000
H441  H     H_    0.767950 0.014433 0.389072 0.000000
C505  C     C_3   0.983177 0.879432 0.116784 0.000000
C506  C     C_R   0.982071 0.927454 0.102084 0.000000
C507  C     C_R   0.927874 0.979533 0.099105 0.000000
C508  C     C_R   0.927126 0.026829 0.086846 0.000000
C509  C     C_R   0.979782 0.019698 0.077059 0.000000
N127  N     N_R   0.990876 0.062830 0.067129 0.000000
C510  C     C_R   0.049906 0.027519 0.059441 0.000000
N128  N     N_R   0.075365 0.965334 0.064605 0.000000
C511  C     C_R   0.030625 0.964453 0.077135 0.000000
C512  C     C_R   0.034478 0.919669 0.091005 0.000000
S64   S     S_3+2 0.091304 0.064327 0.048364 0.000000
O190  O     O_2   0.050734 0.133975 0.049089 0.000000
O191  O     O_2   0.104129 0.052213 0.024348 0.000000
O192  O     O_3   0.156192 0.056846 0.059887 0.000000
H442  H     H_    0.969201 0.900111 0.133095 0.000000
H443  H     H_    0.029536 0.840506 0.116915 0.000000
H444  H     H_    0.951188 0.861787 0.111493 0.000000
H445  H     H_    0.886541 0.984231 0.107101 0.000000
H446  H     H_    0.886772 0.068035 0.084544 0.000000
H447  H     H_    0.076690 0.878848 0.092817 0.000000
H448  H     H_    0.151349 0.047166 0.074851 0.000000
C513  C     C_3   0.118330 0.024104 0.151629 0.000000
C514  C     C_R   0.087260 0.063484 0.133772 0.000000
C515  C     C_R   0.036583 0.061842 0.125304 0.000000
C516  C     C_R   0.005463 0.102300 0.109703 0.000000
C517  C     C_R   0.027581 0.141243 0.102119 0.000000
N129  N     N_R   0.003538 0.184076 0.087156 0.000000
C518  C     C_R   0.032738 0.220899 0.091173 0.000000
N130  N     N_R   0.073586 0.200331 0.107376 0.000000
C519  C     C_R   0.071249 0.148278 0.112675 0.000000
C520  C     C_R   0.103991 0.108336 0.127828 0.000000
S65   S     S_3+2 0.019014 0.290407 0.077870 0.000000
O193  O     O_2   0.075374 0.301937 0.078303 0.000000
O194  O     O_2   0.972431 0.347829 0.090374 0.000000
O195  O     O_3   0.997819 0.301331 0.052047 0.000000
H449  H     H_    0.092971 0.999018 0.157383 0.000000
H450  H     H_    0.119728 0.054518 0.164653 0.000000
H451  H     H_    0.165416 0.991491 0.146406 0.000000
H452  H     H_    0.019835 0.030566 0.131337 0.000000
H453  H     H_    0.962309 0.106684 0.104962 0.000000
H454  H     H_    0.139739 0.113345 0.135754 0.000000
H455  H     H_    0.025145 0.316472 0.045251 0.000000
C521  C     C_3   0.472443 0.229423 0.496669 0.000000
C522  C     C_R   0.515463 0.230898 0.512369 0.000000
C523  C     C_R   0.557957 0.175739 0.519220 0.000000
C524  C     C_R   0.590526 0.174745 0.536377 0.000000
C525  C     C_R   0.586595 0.227917 0.544924 0.000000
N131  N     N_R   0.617304 0.231142 0.561629 0.000000
C526  C     C_R   0.585599 0.294603 0.566946 0.000000
N132  N     N_R   0.536200 0.328655 0.554113 0.000000
C527  C     C_R   0.542240 0.283522 0.539621 0.000000
C528  C     C_R   0.506872 0.285311 0.522582 0.000000
S66   S     S_3+2 0.606499 0.328135 0.588902 0.000000
O196  O     O_2   0.665224 0.281587 0.598568 0.000000
O197  O     O_2   0.562203 0.342024 0.608166 0.000000
O198  O     O_3   0.616147 0.393394 0.585577 0.000000
H456  H     H_    0.497507 0.208642 0.481407 0.000000
H457  H     H_    0.435781 0.276441 0.494393 0.000000
H458  H     H_    0.451954 0.199970 0.502669 0.000000
H459  H     H_    0.562037 0.133459 0.512349 0.000000
H460  H     H_    0.613447 0.133819 0.544546 0.000000
H461  H     H_    0.466607 0.324866 0.519190 0.000000
H462  H     H_    0.643039 0.384022 0.572650 0.000000
C529  C     C_3   0.703935 0.846852 0.587472 0.000000
C530  C     C_R   0.690202 0.913231 0.586845 0.000000
C531  C     C_R   0.735241 0.929171 0.580506 0.000000
C532  C     C_R   0.721984 0.990349 0.577717 0.000000
C533  C     C_R   0.664520 0.034472 0.583621 0.000000
N133  N     N_R   0.640767 0.096016 0.581567 0.000000
C534  C     C_R   0.584561 0.117121 0.591653 0.000000
N134  N     N_R   0.574167 0.070778 0.600184 0.000000
C535  C     C_R   0.623454 0.019232 0.593148 0.000000
C536  C     C_R   0.633057 0.958819 0.592693 0.000000
S67   S     S_3+2 0.537958 0.196937 0.598586 0.000000
O199  O     O_2   0.578579 0.225976 0.605533 0.000000
O200  O     O_2   0.499563 0.206879 0.619226 0.000000
O201  O     O_3   0.489840 0.246846 0.581196 0.000000
H463  H     H_    0.718735 0.825270 0.571305 0.000000
H464  H     H_    0.663112 0.842110 0.592958 0.000000
H465  H     H_    0.740852 0.823017 0.598594 0.000000
H466  H     H_    0.780635 0.893387 0.577448 0.000000
H467  H     H_    0.756005 0.002961 0.571419 0.000000
H468  H     H_    0.597141 0.946543 0.595523 0.000000
H469  H     H_    0.449547 0.250571 0.585708 0.000000
C537  C     C_3   0.431239 0.027872 0.030746 0.000000
C538  C     C_R   0.425242 0.972483 0.022994 0.000000
C539  C     C_R   0.426321 0.962171 0.001174 0.000000
C540  C     C_R   0.435721 0.905210 0.993103 0.000000
C541  C     C_R   0.448996 0.859018 0.007330 0.000000
N135  N     N_R   0.479241 0.797887 0.002848 0.000000
C542  C     C_R   0.491898 0.775145 0.023470 0.000000
N136  N     N_R   0.455991 0.818144 0.039615 0.000000
C543  C     C_R   0.438226 0.871169 0.028862 0.000000
C544  C     C_R   0.424142 0.929188 0.037114 0.000000
S68   S     S_3+2 0.571613 0.741397 0.028020 0.000000
O202  O     O_2   0.608771 0.679109 0.017009 0.000000
O203  O     O_2   0.588563 0.725904 0.051026 0.000000
O204  O     O_3   0.608827 0.783173 0.020164 0.000000
H470  H     H_    0.474212 0.025749 0.023995 0.000000
H471  H     H_    0.432727 0.028780 0.048340 0.000000
H472  H     H_    0.392873 0.070482 0.025339 0.000000
H473  H     H_    0.424742 0.997152 0.990406 0.000000
H474  H     H_    0.441896 0.895136 0.976149 0.000000
H475  H     H_    0.421027 0.937889 0.054035 0.000000
H476  H     H_    0.637256 0.757895 0.008448 0.000000
C545  C     C_3   0.208424 0.942146 0.405608 0.000000
C546  C     C_R   0.273425 0.900692 0.409209 0.000000
C547  C     C_R   0.318191 0.906678 0.396989 0.000000
C548  C     C_R   0.378587 0.865823 0.399071 0.000000
C549  C     C_R   0.392499 0.821950 0.414296 0.000000
N137  N     N_R   0.446987 0.773695 0.417112 0.000000
C550  C     C_R   0.433250 0.742446 0.432906 0.000000
N138  N     N_R   0.374540 0.772626 0.441291 0.000000
C551  C     C_R   0.349309 0.820259 0.428000 0.000000
C552  C     C_R   0.288926 0.855933 0.424432 0.000000
S69   S     S_3+2 0.467033 0.661618 0.430744 0.000000
O205  O     O_2   0.482210 0.681849 0.409601 0.000000
O206  O     O_2   0.433774 0.633871 0.417336 0.000000
O207  O     O_3   0.542339 0.610974 0.429401 0.000000
H477  H     H_    0.199844 0.990927 0.407881 0.000000
H478  H     H_    0.178866 0.932676 0.417078 0.000000
H479  H     H_    0.197790 0.934410 0.389144 0.000000
H480  H     H_    0.305648 0.941625 0.385118 0.000000
H481  H     H_    0.413465 0.868283 0.388934 0.000000
H482  H     H_    0.254547 0.846778 0.432084 0.000000
H483  H     H_    0.556498 0.612942 0.443784 0.000000
C553  C     C_3   0.604366 0.631994 0.528712 0.000000
C554  C     C_R   0.543578 0.665374 0.519481 0.000000
C555  C     C_R   0.538789 0.683848 0.498575 0.000000
C556  C     C_R   0.482997 0.712517 0.489206 0.000000
C557  C     C_R   0.432736 0.720585 0.501307 0.000000
N139  N     N_R   0.373974 0.746478 0.496056 0.000000
C558  C     C_R   0.344458 0.766689 0.515748 0.000000
N140  N     N_R   0.381735 0.737463 0.532353 0.000000
C559  C     C_R   0.437093 0.711817 0.522563 0.000000
C560  C     C_R   0.491703 0.679625 0.531837 0.000000
S70   S     S_3+2 0.306193 0.849456 0.518265 0.000000
O208  O     O_2   0.327758 0.873904 0.499096 0.000000
O209  O     O_2   0.331339 0.874535 0.535980 0.000000
O210  O     O_3   0.229194 0.894020 0.519255 0.000000
H484  H     H_    0.629039 0.585632 0.520846 0.000000
H485  H     H_    0.599282 0.626410 0.546007 0.000000
H486  H     H_    0.630714 0.658483 0.526239 0.000000
H487  H     H_    0.579359 0.674195 0.489489 0.000000
H488  H     H_    0.479833 0.726002 0.472861 0.000000
H489  H     H_    0.493747 0.667780 0.548370 0.000000
H490  H     H_    0.223515 0.934557 0.514068 0.000000
C561  C     C_3   0.464299 0.785329 0.204574 0.000000
C562  C     C_R   0.456808 0.845315 0.196108 0.000000
C563  C     C_R   0.482017 0.847339 0.176277 0.000000
C564  C     C_R   0.466126 0.903298 0.166786 0.000000
C565  C     C_R   0.426423 0.956513 0.177730 0.000000
N141  N     N_R   0.389333 0.010430 0.168977 0.000000
C566  C     C_R   0.343694 0.035990 0.185008 0.000000
N142  N     N_R   0.361470 0.009308 0.204811 0.000000
C567  C     C_R   0.407965 0.954892 0.198447 0.000000
C568  C     C_R   0.420812 0.899342 0.207543 0.000000
S71   S     S_3+2 0.272316 0.039428 0.177611 0.000000
O211  O     O_2   0.256803 0.051456 0.154437 0.000000
O212  O     O_2   0.216266 0.091104 0.188370 0.000000
O213  O     O_3   0.264925 0.973207 0.181260 0.000000
H491  H     H_    0.419383 0.785176 0.205616 0.000000
H492  H     H_    0.482513 0.779681 0.220701 0.000000
H493  H     H_    0.495599 0.746318 0.193959 0.000000
H494  H     H_    0.509940 0.805042 0.167293 0.000000
H495  H     H_    0.479823 0.903704 0.150434 0.000000
H496  H     H_    0.397688 0.897440 0.222053 0.000000
H497  H     H_    0.262927 0.958205 0.166725 0.000000
C569  C     C_3   0.629124 0.863249 0.053580 0.000000
C570  C     C_R   0.579884 0.888436 0.070422 0.000000
C571  C     C_R   0.577575 0.933808 0.084556 0.000000
C572  C     C_R   0.531922 0.958338 0.100108 0.000000
C573  C     C_R   0.489976 0.935667 0.101766 0.000000
N143  N     N_R   0.441429 0.953652 0.115422 0.000000
C574  C     C_R   0.416432 0.915729 0.109385 0.000000
N144  N     N_R   0.445833 0.876573 0.092117 0.000000
C575  C     C_R   0.492260 0.890679 0.087923 0.000000
C576  C     C_R   0.536169 0.867331 0.071828 0.000000
S72   S     S_3+2 0.354304 0.916972 0.124284 0.000000
O214  O     O_2   0.355333 0.966919 0.138422 0.000000
O215  O     O_2   0.367121 0.875220 0.143532 0.000000
O216  O     O_3   0.277842 0.961597 0.121432 0.000000
H498  H     H_    0.662120 0.882113 0.055827 0.000000
H499  H     H_    0.609058 0.876950 0.037857 0.000000
H500  H     H_    0.653251 0.812199 0.054429 0.000000
H501  H     H_    0.610840 0.951333 0.083308 0.000000
H502  H     H_    0.530323 0.994605 0.110177 0.000000
H503  H     H_    0.536425 0.833821 0.060613 0.000000
H504  H     H_    0.273821 0.971223 0.106161 0.000000
C577  C     C_3   0.816831 0.367946 0.464737 0.000000
C578  C     C_R   0.771318 0.369774 0.449377 0.000000
C579  C     C_R   0.735695 0.340696 0.454364 0.000000
C580  C     C_R   0.698238 0.335219 0.439445 0.000000
C581  C     C_R   0.699621 0.357619 0.419698 0.000000
N145  N     N_R   0.694179 0.331888 0.401340 0.000000
C582  C     C_R   0.717528 0.357585 0.386478 0.000000
N146  N     N_R   0.729048 0.404261 0.394989 0.000000
C583  C     C_R   0.725349 0.396075 0.415957 0.000000
C584  C     C_R   0.766831 0.396706 0.429806 0.000000
S73   S     S_3+2 0.762714 0.309746 0.364126 0.000000
O217  O     O_2   0.818193 0.252153 0.371172 0.000000
O218  O     O_2   0.793315 0.340238 0.350363 0.000000
O219  O     O_3   0.730318 0.282630 0.345896 0.000000
H505  H     H_    0.792915 0.395654 0.479298 0.000000
H506  H     H_    0.846601 0.386521 0.457618 0.000000
H507  H     H_    0.845256 0.319444 0.469087 0.000000
H508  H     H_    0.740074 0.318652 0.469455 0.000000
H509  H     H_    0.674774 0.307613 0.442510 0.000000
H510  H     H_    0.800374 0.410015 0.423979 0.000000
H511  H     H_    0.743248 0.293512 0.332234 0.000000
C585  C     C_3   0.646546 0.369521 0.291818 0.000000
C586  C     C_R   0.658158 0.403057 0.309414 0.000000
C587  C     C_R   0.644530 0.398909 0.330571 0.000000
C588  C     C_R   0.662534 0.428148 0.345991 0.000000
C589  C     C_R   0.697380 0.456715 0.339792 0.000000
N147  N     N_R   0.714739 0.492128 0.351904 0.000000
C590  C     C_R   0.719631 0.531008 0.337189 0.000000
N148  N     N_R   0.714695 0.515359 0.316594 0.000000
C591  C     C_R   0.700109 0.468876 0.318974 0.000000
C592  C     C_R   0.679447 0.443419 0.303815 0.000000
S74   S     S_3+2 0.706574 0.606488 0.343848 0.000000
O220  O     O_2   0.638900 0.650645 0.346225 0.000000
O221  O     O_2   0.724210 0.633386 0.324671 0.000000
O222  O     O_3   0.739904 0.621151 0.365110 0.000000
H512  H     H_    0.652922 0.324332 0.297368 0.000000
H513  H     H_    0.680607 0.361336 0.278741 0.000000
H514  H     H_    0.601297 0.398013 0.285559 0.000000
H515  H     H_    0.620588 0.372656 0.335048 0.000000
H516  H     H_    0.646360 0.431733 0.362172 0.000000
H517  H     H_    0.672035 0.458329 0.288121 0.000000
H518  H     H_    0.755025 0.650026 0.359720 0.000000
C593  C     C_3   0.199338 0.048053 0.875922 0.000000
C594  C     C_R   0.185001 0.021254 0.894689 0.000000
C595  C     C_R   0.231422 0.984166 0.907115 0.000000
C596  C     C_R   0.221350 0.949245 0.922179 0.000000
C597  C     C_R   0.166220 0.947592 0.923324 0.000000
N149  N     N_R   0.147358 0.915392 0.936581 0.000000
C598  C     C_R   0.084505 0.946722 0.934414 0.000000
N150  N     N_R   0.066864 0.987275 0.917814 0.000000
C599  C     C_R   0.119047 0.989298 0.912377 0.000000
C600  C     C_R   0.126877 0.028475 0.898548 0.000000
S75   S     S_3+2 0.035993 0.970720 0.957803 0.000000
O223  O     O_2   0.074016 0.957898 0.977514 0.000000
O224  O     O_2   0.998703 0.935362 0.961938 0.000000
O225  O     O_3   0.986967 0.047302 0.961794 0.000000
H519  H     H_    0.207606 0.087841 0.880641 0.000000
H520  H     H_    0.160809 0.061350 0.865409 0.000000
H521  H     H_    0.240256 0.011446 0.867649 0.000000
H522  H     H_    0.276099 0.981740 0.904872 0.000000
H523  H     H_    0.256653 0.926360 0.932718 0.000000
H524  H     H_    0.089442 0.061203 0.889965 0.000000
H525  H     H_    0.997640 0.058583 0.975702 0.000000
C601  C     C_3   0.832623 0.014171 0.974644 0.000000
C602  C     C_R   0.849991 0.985964 0.952798 0.000000
C603  C     C_R   0.821268 0.953088 0.944683 0.000000
C604  C     C_R   0.838472 0.924821 0.924770 0.000000
C605  C     C_R   0.886065 0.927633 0.913881 0.000000
N151  N     N_R   0.912960 0.899178 0.895273 0.000000
C606  C     C_R   0.945422 0.931243 0.889476 0.000000
N152  N     N_R   0.943070 0.974250 0.904477 0.000000
C607  C     C_R   0.907302 0.967996 0.920140 0.000000
C608  C     C_R   0.891943 0.995297 0.940186 0.000000
S76   S     S_3+2 0.995075 0.910651 0.866676 0.000000
O226  O     O_2   0.991115 0.854171 0.858265 0.000000
O227  O     O_2   0.063237 0.878607 0.870425 0.000000
O228  O     O_3   0.981983 0.951005 0.843904 0.000000
H526  H     H_    0.782831 0.043299 0.975855 0.000000
H527  H     H_    0.856025 0.042910 0.978181 0.000000
H528  H     H_    0.845313 0.977039 0.986333 0.000000
H529  H     H_    0.785244 0.949630 0.953888 0.000000
H530  H     H_    0.813224 0.903555 0.917764 0.000000
H531  H     H_    0.911400 0.023711 0.946018 0.000000
H532  H     H_    0.970831 0.926305 0.833832 0.000000
C609  C     C_3   0.087086 0.888531 0.740718 0.000000
C610  C     C_R   0.034553 0.882418 0.749807 0.000000
C611  C     C_R   0.044734 0.834806 0.763413 0.000000
C612  C     C_R   0.997742 0.821677 0.769410 0.000000
C613  C     C_R   0.943264 0.854716 0.760551 0.000000
N153  N     N_R   0.892741 0.848693 0.764545 0.000000
C614  C     C_R   0.848805 0.901114 0.755499 0.000000
N154  N     N_R   0.871852 0.938810 0.746674 0.000000
C615  C     C_R   0.931506 0.906467 0.749608 0.000000
C616  C     C_R   0.976171 0.923309 0.744788 0.000000
S77   S     S_3+2 0.768383 0.924835 0.759233 0.000000
O229  O     O_2   0.757113 0.872776 0.768202 0.000000
O230  O     O_2   0.735036 0.934059 0.738465 0.000000
O231  O     O_3   0.723276 0.985323 0.776068 0.000000
H533  H     H_    0.108133 0.903922 0.753360 0.000000
H534  H     H_    0.072534 0.921218 0.727593 0.000000
H535  H     H_    0.119687 0.842626 0.733968 0.000000
H536  H     H_    0.089879 0.807078 0.768878 0.000000
H537  H     H_    0.003532 0.786306 0.780455 0.000000
H538  H     H_    0.966265 0.965677 0.736733 0.000000
H539  H     H_    0.705606 0.967155 0.786520 0.000000
C617  C     C_3   0.693148 0.155215 0.811396 0.000000
C618  C     C_R   0.678119 0.139626 0.790090 0.000000
C619  C     C_R   0.617704 0.161281 0.785052 0.000000
C620  C     C_R   0.602639 0.144810 0.765775 0.000000
C621  C     C_R   0.648955 0.108520 0.751600 0.000000
N155  N     N_R   0.644834 0.083438 0.732822 0.000000
C622  C     C_R   0.704836 0.055833 0.725032 0.000000
N156  N     N_R   0.744883 0.061107 0.738732 0.000000
C623  C     C_R   0.708017 0.092910 0.755559 0.000000
C624  C     C_R   0.724037 0.103903 0.775392 0.000000
S78   S     S_3+2 0.731701 0.012860 0.700255 0.000000
O232  O     O_2   0.746584 0.049481 0.683336 0.000000
O233  O     O_2   0.683570 0.000223 0.689395 0.000000
O234  O     O_3   0.794273 0.942402 0.699981 0.000000
H540  H     H_    0.674570 0.206109 0.813374 0.000000
H541  H     H_    0.743067 0.133739 0.812981 0.000000
H542  H     H_    0.672530 0.137944 0.823896 0.000000
H543  H     H_    0.582120 0.189430 0.796562 0.000000
H544  H     H_    0.555724 0.159935 0.762228 0.000000
H545  H     H_    0.770743 0.083626 0.779697 0.000000
H546  H     H_    0.779265 0.912553 0.695474 0.000000
C625  C     C_3   0.234313 0.834603 0.729497 0.000000
C626  C     C_R   0.201272 0.893227 0.718090 0.000000
C627  C     C_R   0.180962 0.893040 0.697755 0.000000
C628  C     C_R   0.166934 0.944057 0.685052 0.000000
C629  C     C_R   0.162811 0.996481 0.693878 0.000000
N157  N     N_R   0.148648 0.050774 0.684489 0.000000
C630  C     C_R   0.144154 0.087900 0.701987 0.000000
N158  N     N_R   0.164712 0.055078 0.720318 0.000000
C631  C     C_R   0.173910 0.998678 0.714605 0.000000
C632  C     C_R   0.195888 0.947781 0.726936 0.000000
S79   S     S_3+2 0.107667 0.171166 0.702831 0.000000
O235  O     O_2   0.044330 0.197261 0.693700 0.000000
O236  O     O_2   0.139154 0.201416 0.689373 0.000000
O237  O     O_3   0.094125 0.206738 0.727600 0.000000
H547  H     H_    0.231613 0.795683 0.720876 0.000000
H548  H     H_    0.215057 0.839296 0.745945 0.000000
H549  H     H_    0.282684 0.824716 0.730373 0.000000
H550  H     H_    0.184320 0.850515 0.690751 0.000000
H551  H     H_    0.164664 0.942818 0.668168 0.000000
H552  H     H_    0.206920 0.950693 0.743120 0.000000
H553  H     H_    0.113779 0.234325 0.726871 0.000000
C633  C     C_3   0.942449 0.277480 0.652616 0.000000
C634  C     C_R   0.006611 0.264682 0.648334 0.000000
C635  C     C_R   0.020049 0.311972 0.642392 0.000000
C636  C     C_R   0.079593 0.301717 0.639157 0.000000
C637  C     C_R   0.125761 0.243244 0.641273 0.000000
N159  N     N_R   0.186425 0.221329 0.636514 0.000000
C638  C     C_R   0.204752 0.158251 0.637409 0.000000
N160  N     N_R   0.160436 0.141309 0.644256 0.000000
C639  C     C_R   0.111311 0.196227 0.646016 0.000000
C640  C     C_R   0.052738 0.205676 0.649892 0.000000
S80   S     S_3+2 0.269152 0.106449 0.622710 0.000000
O238  O     O_2   0.290452 0.151366 0.631455 0.000000
O239  O     O_2   0.276763 0.127414 0.600538 0.000000
O240  O     O_3   0.337541 0.051588 0.630199 0.000000
H554  H     H_    0.922004 0.313488 0.665499 0.000000
H555  H     H_    0.940605 0.234740 0.657695 0.000000
H556  H     H_    0.916741 0.293929 0.637959 0.000000
H557  H     H_    0.983561 0.357603 0.640292 0.000000
H558  H     H_    0.088029 0.338945 0.633954 0.000000
H559  H     H_    0.043174 0.167714 0.653863 0.000000
H560  H     H_    0.365885 0.063773 0.622735 0.000000
C641  C     C_3   0.231919 0.065123 0.568077 0.000000
C642  C     C_R   0.261407 0.017156 0.584301 0.000000
C643  C     C_R   0.320375 0.972142 0.580428 0.000000
C644  C     C_R   0.351728 0.934522 0.596595 0.000000
C645  C     C_R   0.323361 0.943620 0.616148 0.000000
N161  N     N_R   0.348436 0.917773 0.634275 0.000000
C646  C     C_R   0.298431 0.936331 0.647914 0.000000
N162  N     N_R   0.244236 0.980335 0.639592 0.000000
C647  C     C_R   0.262888 0.980806 0.619199 0.000000
C648  C     C_R   0.230614 0.017335 0.603227 0.000000
S81   S     S_3+2 0.303049 0.882940 0.667624 0.000000
O241  O     O_2   0.259154 0.855313 0.664176 0.000000
O242  O     O_2   0.294337 0.903619 0.691133 0.000000
O243  O     O_3   0.367521 0.816846 0.666516 0.000000
H561  H     H_    0.259142 0.090484 0.565195 0.000000
H562  H     H_    0.185389 0.098228 0.573782 0.000000
H563  H     H_    0.229934 0.043656 0.552644 0.000000
H564  H     H_    0.342853 0.968938 0.565122 0.000000
H565  H     H_    0.398087 0.901112 0.594351 0.000000
H566  H     H_    0.184156 0.047825 0.606034 0.000000
H567  H     H_    0.358661 0.790705 0.676634 0.000000
C649  C     C_3   0.774285 0.511219 0.984991 0.000000
C650  C     C_R   0.711711 0.554171 0.979282 0.000000
C651  C     C_R   0.692584 0.617501 0.980467 0.000000
C652  C     C_R   0.634155 0.658383 0.975512 0.000000
C653  C     C_R   0.594382 0.634607 0.971426 0.000000
N163  N     N_R   0.535424 0.665469 0.966721 0.000000
C654  C     C_R   0.522460 0.617236 0.960643 0.000000
N164  N     N_R   0.566153 0.560359 0.966873 0.000000
C655  C     C_R   0.612630 0.572654 0.971086 0.000000
C656  C     C_R   0.671615 0.531157 0.973954 0.000000
S82   S     S_3+2 0.499378 0.618245 0.933592 0.000000
O244  O     O_2   0.467539 0.683655 0.925556 0.000000
O245  O     O_2   0.450352 0.598330 0.929965 0.000000
O246  O     O_3   0.553727 0.577703 0.914102 0.000000
H568  H     H_    0.806750 0.515556 0.973536 0.000000
H569  H     H_    0.780407 0.463080 0.984316 0.000000
H570  H     H_    0.782567 0.522899 0.001306 0.000000
H571  H     H_    0.722820 0.635477 0.985841 0.000000
H572  H     H_    0.619738 0.707346 0.976653 0.000000
H573  H     H_    0.685811 0.482547 0.972449 0.000000
H574  H     H_    0.531991 0.589077 0.900655 0.000000
C657  C     C_3   0.405014 0.510259 0.881350 0.000000
C658  C     C_R   0.426437 0.503387 0.903439 0.000000
C659  C     C_R   0.488153 0.480343 0.906674 0.000000
C660  C     C_R   0.509107 0.474791 0.927084 0.000000
C661  C     C_R   0.467977 0.486879 0.943978 0.000000
N165  N     N_R   0.478770 0.485456 0.964956 0.000000
C662  C     C_R   0.421027 0.501132 0.973792 0.000000
N166  N     N_R   0.374406 0.518488 0.959356 0.000000
C663  C     C_R   0.406939 0.507847 0.940713 0.000000
C664  C     C_R   0.384981 0.520750 0.920616 0.000000
S83   S     S_3+2 0.408766 0.488784 0.000594 0.000000
O247  O     O_2   0.395630 0.433618 0.004857 0.000000
O248  O     O_2   0.345381 0.539505 0.004407 0.000000
O249  O     O_3   0.435782 0.505533 0.022678 0.000000
H575  H     H_    0.414391 0.545709 0.873331 0.000000
H576  H     H_    0.355690 0.524006 0.881678 0.000000
H577  H     H_    0.429173 0.465350 0.872463 0.000000
H578  H     H_    0.519765 0.469743 0.893174 0.000000
H579  H     H_    0.555846 0.464167 0.929495 0.000000
H580  H     H_    0.336768 0.543345 0.918314 0.000000
H581  H     H_    0.418411 0.489288 0.033907 0.000000
C665  C     C_3   0.495408 0.322913 0.050453 0.000000
C666  C     C_R   0.520950 0.359367 0.039511 0.000000
C667  C     C_R   0.538967 0.345659 0.018236 0.000000
C668  C     C_R   0.555022 0.384309 0.006956 0.000000
C669  C     C_R   0.556399 0.432943 0.017868 0.000000
N167  N     N_R   0.558769 0.481423 0.009103 0.000000
C670  C     C_R   0.555395 0.518041 0.026443 0.000000
N168  N     N_R   0.544557 0.497013 0.045582 0.000000
C671  C     C_R   0.544835 0.443211 0.039244 0.000000
C672  C     C_R   0.522561 0.409194 0.050258 0.000000
S84   S     S_3+2 0.567477 0.583667 0.023486 0.000000
O250  O     O_2   0.632671 0.566738 0.016069 0.000000
O251  O     O_2   0.564028 0.617321 0.044252 0.000000
O252  O     O_3   0.520204 0.640221 0.007833 0.000000
H582  H     H_    0.499096 0.283841 0.040092 0.000000
H583  H     H_    0.447374 0.355159 0.053792 0.000000
H584  H     H_    0.518543 0.305176 0.065457 0.000000
H585  H     H_    0.536014 0.307690 0.009973 0.000000
H586  H     H_    0.562311 0.378398 0.989943 0.000000
H587  H     H_    0.507770 0.420367 0.066737 0.000000
H588  H     H_    0.497305 0.620538 0.001089 0.000000
C673  C     C_3   0.919389 0.678000 0.817155 0.000000
C674  C     C_R   0.942133 0.613861 0.822384 0.000000
C675  C     C_R   0.903501 0.595974 0.831546 0.000000
C676  C     C_R   0.900468 0.544416 0.824163 0.000000
C677  C     C_R   0.947769 0.504053 0.812665 0.000000
N169  N     N_R   0.961497 0.444970 0.809477 0.000000
C678  C     C_R   0.020222 0.422468 0.801335 0.000000
N170  N     N_R   0.040935 0.467041 0.799654 0.000000
C679  C     C_R   0.993739 0.516425 0.807471 0.000000
C680  C     C_R   0.992040 0.571747 0.812224 0.000000
S85   S     S_3+2 0.067712 0.342378 0.797683 0.000000
O253  O     O_2   0.096753 0.312101 0.818333 0.000000
O254  O     O_2   0.124163 0.331872 0.784287 0.000000
O255  O     O_3   0.040788 0.294951 0.786507 0.000000
H589  H     H_    0.890025 0.707447 0.830279 0.000000
H590  H     H_    0.895003 0.682372 0.802612 0.000000
H591  H     H_    0.957168 0.687884 0.813515 0.000000
H592  H     H_    0.877561 0.622818 0.844919 0.000000
H593  H     H_    0.869548 0.529428 0.830288 0.000000
H594  H     H_    0.028799 0.582452 0.810862 0.000000
H595  H     H_    0.052005 0.292039 0.771167 0.000000
C681  C     C_3   0.094278 0.210343 0.887906 0.000000
C682  C     C_R   0.043818 0.263517 0.878369 0.000000
C683  C     C_R   0.043472 0.268831 0.856473 0.000000
C684  C     C_R   0.996472 0.316111 0.846910 0.000000
C685  C     C_R   0.952437 0.360045 0.859714 0.000000
N171  N     N_R   0.908392 0.414478 0.853793 0.000000
C686  C     C_R   0.891711 0.446803 0.873018 0.000000
N172  N     N_R   0.915062 0.412320 0.889965 0.000000
C687  C     C_R   0.955674 0.358147 0.881208 0.000000
C688  C     C_R   0.998646 0.308669 0.891129 0.000000
S86   S     S_3+2 0.900858 0.511822 0.874815 0.000000
O256  O     O_2   0.847352 0.556228 0.863623 0.000000
O257  O     O_2   0.953522 0.502838 0.859677 0.000000
O258  O     O_3   0.899015 0.559625 0.894752 0.000000
H596  H     H_    0.094233 0.167130 0.881945 0.000000
H597  H     H_    0.088019 0.213479 0.905430 0.000000
H598  H     H_    0.138088 0.210315 0.883341 0.000000
H599  H     H_    0.080871 0.237008 0.846657 0.000000
H600  H     H_    0.996859 0.320476 0.829995 0.000000
H601  H     H_    0.997373 0.305563 0.908156 0.000000
H602  H     H_    0.876619 0.600565 0.888641 0.000000
C689  C     C_3   0.565321 0.560192 0.829826 0.000000
C690  C     C_R   0.630687 0.543958 0.825963 0.000000
C691  C     C_R   0.674393 0.483650 0.829028 0.000000
C692  C     C_R   0.735715 0.466879 0.825843 0.000000
C693  C     C_R   0.751496 0.510611 0.818310 0.000000
N173  N     N_R   0.807077 0.501853 0.811337 0.000000
C694  C     C_R   0.792882 0.556845 0.800841 0.000000
N174  N     N_R   0.733304 0.602049 0.804619 0.000000
C695  C     C_R   0.708286 0.569450 0.814484 0.000000
C696  C     C_R   0.647704 0.588248 0.819031 0.000000
S87   S     S_3+2 0.837002 0.560526 0.777908 0.000000
O259  O     O_2   0.896601 0.501942 0.773454 0.000000
O260  O     O_2   0.860650 0.608904 0.780361 0.000000
O261  O     O_3   0.803343 0.573215 0.753829 0.000000
H603  H     H_    0.552764 0.531380 0.819088 0.000000
H604  H     H_    0.536671 0.609675 0.826741 0.000000
H605  H     H_    0.557423 0.551244 0.846594 0.000000
H606  H     H_    0.660309 0.449268 0.833871 0.000000
H607  H     H_    0.769409 0.419823 0.827556 0.000000
H608  H     H_    0.614496 0.634787 0.815889 0.000000
H609  H     H_    0.807654 0.532239 0.749060 0.000000
C697  C     C_3   0.530637 0.070907 0.404969 0.000000
C698  C     C_R   0.569562 0.015453 0.391432 0.000000
C699  C     C_R   0.549320 0.006800 0.372197 0.000000
C700  C     C_R   0.590621 0.967775 0.356916 0.000000
C701  C     C_R   0.649739 0.934127 0.361705 0.000000
N175  N     N_R   0.701130 0.904752 0.349141 0.000000
C702  C     C_R   0.744764 0.880565 0.364160 0.000000
N176  N     N_R   0.720326 0.890106 0.384723 0.000000
C703  C     C_R   0.662882 0.929639 0.382280 0.000000
C704  C     C_R   0.626829 0.973743 0.397056 0.000000
S88   S     S_3+2 0.819206 0.875922 0.359252 0.000000
O262  O     O_2   0.862621 0.823124 0.344490 0.000000
O263  O     O_2   0.854450 0.858374 0.379659 0.000000
O264  O     O_3   0.825815 0.940074 0.351285 0.000000
H610  H     H_    0.522234 0.112942 0.396056 0.000000
H611  H     H_    0.553505 0.071660 0.419773 0.000000
H612  H     H_    0.486534 0.070758 0.408702 0.000000
H613  H     H_    0.503225 0.036467 0.367990 0.000000
H614  H     H_    0.575606 0.965450 0.341896 0.000000
H615  H     H_    0.645498 0.978363 0.411781 0.000000
H616  H     H_    0.861712 0.937837 0.358604 0.000000
C705  C     C_3   0.400868 0.041005 0.323599 0.000000
C706  C     C_R   0.464079 0.005933 0.314906 0.000000
C707  C     C_R   0.501031 0.034789 0.312432 0.000000
C708  C     C_R   0.561842 0.001136 0.306215 0.000000
C709  C     C_R   0.584498 0.938578 0.304150 0.000000
N177  N     N_R   0.642610 0.895322 0.302119 0.000000
C710  C     C_R   0.636910 0.844489 0.295126 0.000000
N178  N     N_R   0.577693 0.852055 0.298571 0.000000
C711  C     C_R   0.546959 0.912100 0.303969 0.000000
C712  C     C_R   0.486634 0.943921 0.309888 0.000000
S89   S     S_3+2 0.682794 0.807358 0.271046 0.000000
O265  O     O_2   0.742189 0.812180 0.272712 0.000000
O266  O     O_2   0.660741 0.846224 0.251225 0.000000
O267  O     O_3   0.709391 0.732790 0.262068 0.000000
H617  H     H_    0.396820 0.028624 0.340212 0.000000
H618  H     H_    0.370450 0.029380 0.313926 0.000000
H619  H     H_    0.387945 0.090963 0.323410 0.000000
H620  H     H_    0.483264 0.082915 0.317008 0.000000
H621  H     H_    0.591424 0.022160 0.304739 0.000000
H622  H     H_    0.458788 0.920817 0.312590 0.000000
H623  H     H_    0.742429 0.727006 0.251611 0.000000
C713  C     C_3   0.925462 0.933343 0.301666 0.000000
C714  C     C_R   0.915130 0.877339 0.301045 0.000000
C715  C     C_R   0.964168 0.819500 0.298413 0.000000
C716  C     C_R   0.955837 0.766781 0.298748 0.000000
C717  C     C_R   0.897716 0.772446 0.300421 0.000000
N179  N     N_R   0.879759 0.727208 0.302618 0.000000
C718  C     C_R   0.818172 0.762173 0.307402 0.000000
N180  N     N_R   0.797523 0.825857 0.307675 0.000000
C719  C     C_R   0.849116 0.830094 0.302768 0.000000
C720  C     C_R   0.857173 0.882734 0.303855 0.000000
S90   S     S_3+2 0.772262 0.727397 0.315917 0.000000
O268  O     O_2   0.809742 0.671129 0.328922 0.000000
O269  O     O_2   0.755068 0.697048 0.297631 0.000000
O270  O     O_3   0.706729 0.768101 0.330759 0.000000
H624  H     H_    0.954353 0.930863 0.315158 0.000000
H625  H     H_    0.881571 0.975630 0.303677 0.000000
H626  H     H_    0.948667 0.935458 0.286544 0.000000
H627  H     H_    0.009592 0.815351 0.296567 0.000000
H628  H     H_    0.994619 0.722969 0.296944 0.000000
H629  H     H_    0.820124 0.926695 0.308235 0.000000
H630  H     H_    0.678805 0.751806 0.325810 0.000000
C721  C     C_3   0.070271 0.043145 0.471729 0.000000
C722  C     C_R   0.117102 0.977438 0.471443 0.000000
C723  C     C_R   0.178015 0.963428 0.468340 0.000000
C724  C     C_R   0.222685 0.902825 0.468253 0.000000
C725  C     C_R   0.205046 0.856794 0.470502 0.000000
N181  N     N_R   0.240831 0.795170 0.471334 0.000000
C726  C     C_R   0.198781 0.774621 0.477175 0.000000
N182  N     N_R   0.138586 0.819705 0.478551 0.000000
C727  C     C_R   0.144958 0.870849 0.474149 0.000000
C728  C     C_R   0.100151 0.930815 0.474757 0.000000
S91   S     S_3+2 0.221865 0.699472 0.486261 0.000000
O271  O     O_2   0.230632 0.649269 0.469524 0.000000
O272  O     O_2   0.171426 0.699737 0.500870 0.000000
O273  O     O_3   0.285071 0.669041 0.500692 0.000000
H631  H     H_    0.079232 0.069270 0.484658 0.000000
H632  H     H_    0.024299 0.046305 0.474446 0.000000
H633  H     H_    0.072352 0.063495 0.456237 0.000000
H634  H     H_    0.190784 0.000293 0.466171 0.000000
H635  H     H_    0.269899 0.892309 0.466112 0.000000
H636  H     H_    0.053476 0.941333 0.478367 0.000000
H637  H     H_    0.307037 0.626030 0.494969 0.000000
C729  C     C_3   0.878660 0.732691 0.513245 0.000000
C730  C     C_R   0.939667 0.703874 0.502683 0.000000
C731  C     C_R   0.968914 0.640661 0.500018 0.000000
C732  C     C_R   0.020856 0.613846 0.487442 0.000000
C733  C     C_R   0.050201 0.648571 0.482215 0.000000
N183  N     N_R   0.100603 0.630018 0.469683 0.000000
C734  C     C_R   0.101119 0.686387 0.465640 0.000000
N184  N     N_R   0.057599 0.735547 0.477297 0.000000
C735  C     C_R   0.024502 0.710220 0.486540 0.000000
C736  C     C_R   0.965757 0.739540 0.494433 0.000000
S92   S     S_3+2 0.130324 0.702628 0.441382 0.000000
O274  O     O_2   0.078241 0.738324 0.426618 0.000000
O275  O     O_2   0.169503 0.644431 0.427901 0.000000
O276  O     O_3   0.168734 0.745649 0.440724 0.000000
H638  H     H_    0.859712 0.699319 0.514398 0.000000
H639  H     H_    0.848982 0.771796 0.503738 0.000000
H640  H     H_    0.882394 0.746862 0.529652 0.000000
H641  H     H_    0.948991 0.612615 0.506391 0.000000
H642  H     H_    0.035423 0.567677 0.481354 0.000000
H643  H     H_    0.938966 0.787777 0.492086 0.000000
H644  H     H_    0.148711 0.776215 0.429852 0.000000
C737  C     C_3   0.834789 0.869284 0.538152 0.000000
C738  C     C_R   0.898789 0.844465 0.542657 0.000000
C739  C     C_R   0.918116 0.819268 0.562065 0.000000
C740  C     C_R   0.978434 0.795296 0.565876 0.000000
C741  C     C_R   0.017024 0.796309 0.550112 0.000000
N185  N     N_R   0.073901 0.786519 0.552530 0.000000
C742  C     C_R   0.089868 0.801418 0.533185 0.000000
N186  N     N_R   0.045509 0.816904 0.518749 0.000000
C743  C     C_R   0.999119 0.816480 0.530530 0.000000
C744  C     C_R   0.938957 0.842997 0.526643 0.000000
S93   S     S_3+2 0.142109 0.832257 0.531397 0.000000
O277  O     O_2   0.145151 0.857083 0.553474 0.000000
O278  O     O_2   0.117504 0.892665 0.519369 0.000000
O279  O     O_3   0.216132 0.788736 0.523183 0.000000
H645  H     H_    0.814399 0.841990 0.545982 0.000000
H646  H     H_    0.834262 0.863382 0.520852 0.000000
H647  H     H_    0.811038 0.918518 0.543323 0.000000
H648  H     H_    0.886522 0.818407 0.574174 0.000000
H649  H     H_    0.995252 0.773554 0.580385 0.000000
H650  H     H_    0.922680 0.864275 0.511896 0.000000
H651  H     H_    0.238526 0.782061 0.536396 0.000000
C745  C     C_3   0.415326 0.479509 0.170611 0.000000
C746  C     C_R   0.428716 0.424214 0.183636 0.000000
C747  C     C_R   0.412634 0.430537 0.205275 0.000000
C748  C     C_R   0.418062 0.379930 0.216810 0.000000
C749  C     C_R   0.442591 0.322728 0.206839 0.000000
N187  N     N_R   0.442613 0.269730 0.213838 0.000000
C750  C     C_R   0.460285 0.234068 0.194998 0.000000
N188  N     N_R   0.469321 0.262010 0.177731 0.000000
C751  C     C_R   0.458880 0.317414 0.185586 0.000000
C752  C     C_R   0.453477 0.366541 0.173708 0.000000
S94   S     S_3+2 0.464630 0.162294 0.190678 0.000000
O280  O     O_2   0.428937 0.154025 0.208736 0.000000
O281  O     O_2   0.527987 0.108296 0.192302 0.000000
O282  O     O_3   0.428809 0.144997 0.171678 0.000000
H652  H     H_    0.383313 0.482304 0.158213 0.000000
H653  H     H_    0.457563 0.475258 0.162467 0.000000
H654  H     H_    0.395081 0.522266 0.180806 0.000000
H655  H     H_    0.391282 0.475970 0.212928 0.000000
H656  H     H_    0.395940 0.387104 0.232031 0.000000
H657  H     H_    0.463951 0.361070 0.156777 0.000000
H658  H     H_    0.427818 0.107620 0.177478 0.000000
C753  C     C_3   0.342850 0.343524 0.051452 0.000000
C754  C     C_R   0.359128 0.338021 0.073838 0.000000
C755  C     C_R   0.413450 0.289530 0.078801 0.000000
C756  C     C_R   0.431885 0.283567 0.099119 0.000000
C757  C     C_R   0.393355 0.321770 0.114397 0.000000
N189  N     N_R   0.399660 0.310420 0.134937 0.000000
C758  C     C_R   0.342214 0.348193 0.143283 0.000000
N190  N     N_R   0.300772 0.382050 0.128726 0.000000
C759  C     C_R   0.335929 0.365185 0.110438 0.000000
C760  C     C_R   0.319109 0.377574 0.089632 0.000000
S95   S     S_3+2 0.317066 0.330430 0.166621 0.000000
O283  O     O_2   0.352213 0.260704 0.168621 0.000000
O284  O     O_2   0.251445 0.340749 0.164791 0.000000
O285  O     O_3   0.322270 0.361327 0.190280 0.000000
H659  H     H_    0.340766 0.387346 0.045757 0.000000
H660  H     H_    0.299507 0.341210 0.050775 0.000000
H661  H     H_    0.377387 0.304907 0.041494 0.000000
H662  H     H_    0.441718 0.255356 0.066862 0.000000
H663  H     H_    0.471071 0.244537 0.103527 0.000000
H664  H     H_    0.274481 0.411378 0.085721 0.000000
H665  H     H_    0.341696 0.386934 0.185956 0.000000
C761  C     C_3   0.685289 0.015090 0.164697 0.000000
C762  C     C_R   0.622811 0.030670 0.157988 0.000000
C763  C     C_R   0.601124 0.986770 0.159570 0.000000
C764  C     C_R   0.544104 0.999141 0.152647 0.000000
C765  C     C_R   0.509871 0.055971 0.144433 0.000000
N191  N     N_R   0.455754 0.076414 0.135170 0.000000
C766  C     C_R   0.448093 0.132332 0.127446 0.000000
N192  N     N_R   0.486854 0.152762 0.136367 0.000000
C767  C     C_R   0.529444 0.100326 0.144222 0.000000
C768  C     C_R   0.586494 0.088513 0.150250 0.000000
S96   S     S_3+2 0.438318 0.137838 0.099034 0.000000
O286  O     O_2   0.433247 0.079559 0.092035 0.000000
O287  O     O_2   0.495414 0.126883 0.085605 0.000000
O288  O     O_3   0.378090 0.192978 0.086791 0.000000
H666  H     H_    0.688951 0.003519 0.181754 0.000000
H667  H     H_    0.695420 0.054863 0.162401 0.000000
H668  H     H_    0.718574 0.974728 0.155038 0.000000
H669  H     H_    0.629735 0.941877 0.165671 0.000000
H670  H     H_    0.528671 0.964183 0.152733 0.000000
H671  H     H_    0.603366 0.121987 0.147888 0.000000
H672  H     H_    0.363490 0.169212 0.077631 0.000000
C769  C     C_3   0.265379 0.286178 0.527927 0.000000
C770  C     C_R   0.298383 0.316402 0.538664 0.000000
C771  C     C_R   0.360914 0.288419 0.539452 0.000000
C772  C     C_R   0.389499 0.321089 0.547757 0.000000
C773  C     C_R   0.356347 0.382495 0.552661 0.000000
N193  N     N_R   0.375330 0.423786 0.559290 0.000000
C774  C     C_R   0.321937 0.471860 0.567455 0.000000
N194  N     N_R   0.270610 0.463137 0.563578 0.000000
C775  C     C_R   0.295573 0.406499 0.554454 0.000000
C776  C     C_R   0.265775 0.373751 0.548164 0.000000
S97   S     S_3+2 0.325628 0.521627 0.588798 0.000000
O289  O     O_2   0.369968 0.482287 0.605385 0.000000
O290  O     O_2   0.267669 0.550836 0.602860 0.000000
O291  O     O_3   0.341234 0.582589 0.585780 0.000000
H673  H     H_    0.297882 0.241998 0.519955 0.000000
H674  H     H_    0.236529 0.317434 0.515860 0.000000
H675  H     H_    0.235266 0.278551 0.539685 0.000000
H676  H     H_    0.387489 0.241144 0.534012 0.000000
H677  H     H_    0.435646 0.298061 0.551486 0.000000
H678  H     H_    0.218187 0.392531 0.550078 0.000000
H679  H     H_    0.322015 0.609146 0.598638 0.000000
C777  C     C_3   0.665675 0.399604 0.513342 0.000000
C778  C     C_R   0.611126 0.399088 0.503981 0.000000
C779  C     C_R   0.605101 0.402009 0.482181 0.000000
C780  C     C_R   0.554849 0.402695 0.472720 0.000000
C781  C     C_R   0.507074 0.407734 0.485828 0.000000
N195  N     N_R   0.447818 0.427166 0.481031 0.000000
C782  C     C_R   0.421334 0.430244 0.500766 0.000000
N196  N     N_R   0.459451 0.421347 0.517352 0.000000
C783  C     C_R   0.512834 0.406687 0.507342 0.000000
C784  C     C_R   0.564264 0.401056 0.516908 0.000000
S98   S     S_3+2 0.342750 0.461166 0.504709 0.000000
O292  O     O_2   0.311767 0.507535 0.487487 0.000000
O293  O     O_2   0.322896 0.503009 0.524610 0.000000
O294  O     O_3   0.307555 0.414775 0.507093 0.000000
H680  H     H_    0.706869 0.357857 0.507608 0.000000
H681  H     H_    0.661983 0.399774 0.530954 0.000000
H682  H     H_    0.669520 0.441507 0.508391 0.000000
H683  H     H_    0.636930 0.410710 0.472679 0.000000
H684  H     H_    0.550087 0.410284 0.456020 0.000000
H685  H     H_    0.565520 0.404445 0.533997 0.000000
H686  H     H_    0.340983 0.372530 0.504835 0.000000
C785  C     C_3   0.517129 0.464112 0.635298 0.000000
C786  C     C_R   0.498576 0.503774 0.616423 0.000000
C787  C     C_R   0.491213 0.564031 0.618037 0.000000
C788  C     C_R   0.469022 0.603254 0.601329 0.000000
C789  C     C_R   0.454823 0.581099 0.583262 0.000000
N197  N     N_R   0.425199 0.613128 0.566380 0.000000
C790  C     C_R   0.430083 0.565318 0.552824 0.000000
N198  N     N_R   0.455282 0.506656 0.561255 0.000000
C791  C     C_R   0.469652 0.519397 0.580662 0.000000
C792  C     C_R   0.488250 0.480933 0.597376 0.000000
S99   S     S_3+2 0.431782 0.575572 0.525691 0.000000
O295  O     O_2   0.383316 0.638644 0.520356 0.000000
O296  O     O_2   0.410665 0.537728 0.512145 0.000000
O297  O     O_3   0.498914 0.570095 0.515219 0.000000
H687  H     H_    0.564140 0.427149 0.632537 0.000000
H688  H     H_    0.485554 0.443457 0.638047 0.000000
H689  H     H_    0.515685 0.492051 0.649634 0.000000
H690  H     H_    0.501147 0.581371 0.632602 0.000000
H691  H     H_    0.464074 0.649393 0.602524 0.000000
H692  H     H_    0.490116 0.436008 0.595804 0.000000
H693  H     H_    0.530533 0.536663 0.523124 0.000000
C793  C     C_3   0.951940 0.517804 0.183560 0.000000
C794  C     C_R   0.995328 0.456808 0.191273 0.000000
C795  C     C_R   0.994006 0.403797 0.183672 0.000000
C796  C     C_R   0.021637 0.349695 0.194517 0.000000
C797  C     C_R   0.054195 0.349058 0.211790 0.000000
N199  N     N_R   0.076283 0.306251 0.226851 0.000000
C798  C     C_R   0.106348 0.331450 0.239180 0.000000
N200  N     N_R   0.104048 0.386299 0.231652 0.000000
C799  C     C_R   0.066864 0.396922 0.215643 0.000000
C800  C     C_R   0.033078 0.452971 0.207438 0.000000
S100  S     S_3+2 0.142520 0.298221 0.263145 0.000000
O298  O     O_2   0.098176 0.305239 0.281843 0.000000
O299  O     O_2   0.177563 0.331901 0.271751 0.000000
O300  O     O_3   0.195813 0.223391 0.262582 0.000000
H694  H     H_    0.975435 0.533835 0.171798 0.000000
H695  H     H_    0.934149 0.551246 0.197197 0.000000
H696  H     H_    0.913452 0.514115 0.176121 0.000000
H697  H     H_    0.964506 0.406572 0.171084 0.000000
H698  H     H_    0.011231 0.312625 0.190876 0.000000
H699  H     H_    0.030882 0.492876 0.215613 0.000000
H700  H     H_    0.195356 0.213009 0.277653 0.000000
C801  C     C_3   0.287484 0.163924 0.210908 0.000000
C802  C     C_R   0.231414 0.208150 0.200834 0.000000
C803  C     C_R   0.231870 0.240347 0.183495 0.000000
C804  C     C_R   0.186219 0.257041 0.169228 0.000000
C805  C     C_R   0.150434 0.228330 0.171291 0.000000
N201  N     N_R   0.114534 0.218616 0.157488 0.000000
C806  C     C_R   0.077066 0.206071 0.171143 0.000000
N202  N     N_R   0.090950 0.207057 0.192147 0.000000
C807  C     C_R   0.139501 0.216493 0.191019 0.000000
C808  C     C_R   0.177769 0.211289 0.206946 0.000000
S101  S     S_3+2 0.006371 0.210260 0.163790 0.000000
O301  O     O_2   0.958784 0.252245 0.180328 0.000000
O302  O     O_2   0.001022 0.150101 0.166780 0.000000
O303  O     O_3   0.974782 0.239943 0.140148 0.000000
H701  H     H_    0.282717 0.121816 0.214016 0.000000
H702  H     H_    0.293946 0.180207 0.226449 0.000000
H703  H     H_    0.327571 0.152793 0.200186 0.000000
H704  H     H_    0.271578 0.244660 0.179715 0.000000
H705  H     H_    0.187763 0.280806 0.155475 0.000000
H706  H     H_    0.171822 0.203857 0.223086 0.000000
H707  H     H_    0.951101 0.217414 0.136541 0.000000
C809  C     C_3   0.068097 0.205074 0.311873 0.000000
C810  C     C_R   0.111897 0.167586 0.294499 0.000000
C811  C     C_R   0.167775 0.120990 0.299578 0.000000
C812  C     C_R   0.212649 0.089929 0.283981 0.000000
C813  C     C_R   0.199983 0.104648 0.263059 0.000000
N203  N     N_R   0.234987 0.079432 0.244896 0.000000
C814  C     C_R   0.189524 0.093955 0.230456 0.000000
N204  N     N_R   0.134460 0.143275 0.237429 0.000000
C815  C     C_R   0.141443 0.144094 0.258318 0.000000
C816  C     C_R   0.097463 0.178561 0.273427 0.000000
S102  S     S_3+2 0.182125 0.026387 0.222124 0.000000
O304  O     O_2   0.146921 0.032594 0.201893 0.000000
O305  O     O_2   0.140564 0.016089 0.238582 0.000000
O306  O     O_3   0.244792 0.955583 0.220570 0.000000
H708  H     H_    0.052355 0.175641 0.320909 0.000000
H709  H     H_    0.029023 0.244198 0.305099 0.000000
H710  H     H_    0.090759 0.223977 0.322732 0.000000
H711  H     H_    0.177013 0.109881 0.316063 0.000000
H712  H     H_    0.254618 0.053457 0.288632 0.000000
H713  H     H_    0.053054 0.211957 0.268854 0.000000
H714  H     H_    0.231433 0.927556 0.227846 0.000000
C817  C     C_3   0.335430 0.800710 0.871141 0.000000
C818  C     C_R   0.352436 0.808133 0.893096 0.000000
C819  C     C_R   0.409221 0.804952 0.896231 0.000000
C820  C     C_R   0.428723 0.807340 0.916498 0.000000
C821  C     C_R   0.391344 0.809640 0.933394 0.000000
N205  N     N_R   0.404875 0.799748 0.954172 0.000000
C822  C     C_R   0.348834 0.810156 0.962875 0.000000
N206  N     N_R   0.302817 0.823289 0.948986 0.000000
C823  C     C_R   0.332876 0.818799 0.930252 0.000000
C824  C     C_R   0.312696 0.816836 0.910251 0.000000
S103  S     S_3+2 0.338615 0.796707 0.988802 0.000000
O307  O     O_2   0.394301 0.768015 0.002132 0.000000
O308  O     O_2   0.350602 0.853374 0.988356 0.000000
O309  O     O_3   0.397457 0.745300 0.973121 0.000000
H715  H     H_    0.331988 0.840195 0.861617 0.000000
H716  H     H_    0.291486 0.798584 0.871594 0.000000
H717  H     H_    0.370780 0.757060 0.863696 0.000000
H718  H     H_    0.439609 0.797193 0.882650 0.000000
H719  H     H_    0.472765 0.804681 0.918822 0.000000
H720  H     H_    0.268126 0.819726 0.908184 0.000000
H721  H     H_    0.425932 0.719058 0.983701 0.000000
C825  C     C_3   0.010558 0.707548 0.960675 0.000000
C826  C     C_R   0.061874 0.719900 0.953832 0.000000
C827  C     C_R   0.051339 0.779931 0.950120 0.000000
C828  C     C_R   0.099708 0.793684 0.947606 0.000000
C829  C     C_R   0.156619 0.747721 0.950307 0.000000
N207  N     N_R   0.208362 0.753065 0.951119 0.000000
C830  C     C_R   0.250425 0.691553 0.952638 0.000000
N208  N     N_R   0.226923 0.650757 0.954884 0.000000
C831  C     C_R   0.167296 0.687748 0.952518 0.000000
C832  C     C_R   0.120347 0.672530 0.953124 0.000000
S104  S     S_3+2 0.326608 0.662156 0.945990 0.000000
O310  O     O_2   0.311224 0.717913 0.960484 0.000000
O311  O     O_2   0.346487 0.696193 0.929622 0.000000
O312  O     O_3   0.381804 0.625793 0.963693 0.000000
H722  H     H_    0.027484 0.660277 0.966764 0.000000
H723  H     H_    0.982054 0.712707 0.946966 0.000000
H724  H     H_    0.984181 0.740754 0.973781 0.000000
H725  H     H_    0.005331 0.816373 0.949897 0.000000
H726  H     H_    0.092766 0.839685 0.944663 0.000000
H727  H     H_    0.128256 0.626592 0.956260 0.000000
H728  H     H_    0.403720 0.650656 0.964730 0.000000
C833  C     C_3   0.157387 0.293714 0.441403 0.000000
C834  C     C_R   0.113680 0.357401 0.435797 0.000000
C835  C     C_R   0.063148 0.366293 0.424537 0.000000
C836  C     C_R   0.023414 0.424772 0.418494 0.000000
C837  C     C_R   0.035027 0.473342 0.423941 0.000000
N209  N     N_R   0.004057 0.532928 0.418813 0.000000
C838  C     C_R   0.030780 0.560919 0.431124 0.000000
N210  N     N_R   0.078149 0.520751 0.443188 0.000000
C839  C     C_R   0.080450 0.465733 0.437244 0.000000
C840  C     C_R   0.122266 0.407692 0.442293 0.000000
S105  S     S_3+2 0.013103 0.639419 0.427525 0.000000
O313  O     O_2   0.973559 0.663566 0.408375 0.000000
O314  O     O_2   0.069970 0.641426 0.418462 0.000000
O315  O     O_3   0.980184 0.698902 0.445973 0.000000
H729  H     H_    0.133472 0.273356 0.451339 0.000000
H730  H     H_    0.194927 0.294684 0.450381 0.000000
H731  H     H_    0.176391 0.264948 0.426622 0.000000
H732  H     H_    0.054894 0.327334 0.420341 0.000000
H733  H     H_    0.982628 0.431939 0.411032 0.000000
H734  H     H_    0.160939 0.401730 0.450688 0.000000
H735  H     H_    0.939815 0.725616 0.440461 0.000000
C841  C     C_3   0.602534 0.780643 0.212124 0.000000
C842  C     C_R   0.614775 0.739154 0.230351 0.000000
C843  C     C_R   0.661122 0.679657 0.228079 0.000000
C844  C     C_R   0.675957 0.640921 0.245025 0.000000
C845  C     C_R   0.646334 0.663192 0.264360 0.000000
N211  N     N_R   0.652766 0.632520 0.282611 0.000000
C846  C     C_R   0.600679 0.670912 0.294312 0.000000
N212  N     N_R   0.569856 0.727923 0.285245 0.000000
C847  C     C_R   0.597876 0.719689 0.266069 0.000000
C848  C     C_R   0.580343 0.758707 0.249303 0.000000
S106  S     S_3+2 0.555348 0.634704 0.303864 0.000000
O316  O     O_2   0.588787 0.564757 0.300115 0.000000
O317  O     O_2   0.502822 0.649260 0.288904 0.000000
O318  O     O_3   0.522689 0.643195 0.328653 0.000000
H736  H     H_    0.642667 0.788839 0.208698 0.000000
H737  H     H_    0.562722 0.825169 0.216070 0.000000
H738  H     H_    0.594020 0.758527 0.197899 0.000000
H739  H     H_    0.685274 0.663062 0.212888 0.000000
H740  H     H_    0.706265 0.593457 0.242461 0.000000
H741  H     H_    0.539844 0.801778 0.250690 0.000000
H742  H     H_    0.545077 0.659445 0.337318 0.000000
C849  C     C_3   0.996096 0.775052 0.238919 0.000000
C850  C     C_R   0.023553 0.708285 0.243851 0.000000
C851  C     C_R   0.078768 0.667905 0.234017 0.000000
C852  C     C_R   0.101597 0.605044 0.236701 0.000000
C853  C     C_R   0.069523 0.585089 0.250001 0.000000
N213  N     N_R   0.078118 0.526758 0.252121 0.000000
C854  C     C_R   0.035974 0.533639 0.268121 0.000000
N214  N     N_R   0.000638 0.593737 0.275611 0.000000
C855  C     C_R   0.021066 0.625033 0.262518 0.000000
C856  C     C_R   0.993715 0.686581 0.257924 0.000000
S107  S     S_3+2 0.028940 0.470735 0.278716 0.000000
O319  O     O_2   0.003866 0.437063 0.264082 0.000000
O320  O     O_2   0.978697 0.497903 0.295801 0.000000
O321  O     O_3   0.087695 0.417981 0.292156 0.000000
H743  H     H_    0.027484 0.794377 0.243379 0.000000
H744  H     H_    0.952164 0.800723 0.247938 0.000000
H745  H     H_    0.988338 0.780292 0.221630 0.000000
H746  H     H_    0.101940 0.685200 0.223162 0.000000
H747  H     H_    0.141957 0.572446 0.228074 0.000000
H748  H     H_    0.948533 0.716464 0.263860 0.000000
H749  H     H_    0.120073 0.431076 0.289989 0.000000
C857  C     C_3   0.119982 0.675271 0.331648 0.000000
C858  C     C_R   0.078020 0.654166 0.342168 0.000000
C859  C     C_R   0.085644 0.637317 0.363246 0.000000
C860  C     C_R   0.051493 0.611190 0.372541 0.000000
C861  C     C_R   0.005331 0.609322 0.361517 0.000000
N215  N     N_R   0.977549 0.573890 0.366051 0.000000
C862  C     C_R   0.973901 0.553800 0.345704 0.000000
N216  N     N_R   0.968874 0.597315 0.330862 0.000000
C863  C     C_R   0.999070 0.624255 0.340553 0.000000
C864  C     C_R   0.036428 0.644361 0.330393 0.000000
S108  S     S_3+2 0.043587 0.484966 0.339734 0.000000
O322  O     O_2   0.041422 0.425222 0.332528 0.000000
O323  O     O_2   0.079631 0.464638 0.360063 0.000000
O324  O     O_3   0.095150 0.493903 0.323069 0.000000
H750  H     H_    0.115500 0.717935 0.339959 0.000000
H751  H     H_    0.108717 0.685152 0.314753 0.000000
H752  H     H_    0.167395 0.638664 0.332449 0.000000
H753  H     H_    0.122142 0.639357 0.371794 0.000000
H754  H     H_    0.065193 0.586189 0.386919 0.000000
H755  H     H_    0.039796 0.642593 0.313334 0.000000
H756  H     H_    0.124781 0.496982 0.332703 0.000000
C865  C     C_3   0.871834 0.666477 0.220913 0.000000
C866  C     C_R   0.858527 0.629555 0.237051 0.000000
C867  C     C_R   0.833028 0.590812 0.231387 0.000000
C868  C     C_R   0.815182 0.561944 0.246991 0.000000
C869  C     C_R   0.820631 0.575397 0.267821 0.000000
N217  N     N_R   0.803898 0.555388 0.285478 0.000000
C870  C     C_R   0.841003 0.561120 0.300347 0.000000
N218  N     N_R   0.871885 0.593522 0.293139 0.000000
C871  C     C_R   0.856878 0.601741 0.272680 0.000000
C872  C     C_R   0.873073 0.633009 0.257897 0.000000
S109  S     S_3+2 0.860787 0.513340 0.323309 0.000000
O325  O     O_2   0.927898 0.468505 0.324328 0.000000
O326  O     O_2   0.835890 0.465840 0.322585 0.000000
O327  O     O_3   0.840906 0.545670 0.348117 0.000000
H757  H     H_    0.921037 0.653379 0.220535 0.000000
H758  H     H_    0.846107 0.716274 0.225442 0.000000
H759  H     H_    0.858372 0.658243 0.204966 0.000000
H760  H     H_    0.825863 0.583871 0.214886 0.000000
H761  H     H_    0.799060 0.528651 0.242820 0.000000
H762  H     H_    0.893974 0.661540 0.262488 0.000000
H763  H     H_    0.865008 0.568312 0.349839 0.000000
C873  C     C_3   0.972770 0.440270 0.568252 0.000000
C874  C     C_R   0.033225 0.410118 0.577909 0.000000
C875  C     C_R   0.054600 0.350141 0.584988 0.000000
C876  C     C_R   0.109947 0.321802 0.594576 0.000000
C877  C     C_R   0.141027 0.355941 0.597795 0.000000
N219  N     N_R   0.192542 0.340922 0.608297 0.000000
C878  C     C_R   0.210361 0.383405 0.601081 0.000000
N220  N     N_R   0.171043 0.425632 0.587340 0.000000
C879  C     C_R   0.125549 0.409358 0.587268 0.000000
C880  C     C_R   0.069771 0.439972 0.578583 0.000000
S110  S     S_3+2 0.272479 0.387895 0.612353 0.000000
O328  O     O_2   0.260652 0.402657 0.636294 0.000000
O329  O     O_2   0.273560 0.446656 0.605581 0.000000
O330  O     O_3   0.346011 0.332563 0.607988 0.000000
H764  H     H_    0.972038 0.411842 0.554379 0.000000
H765  H     H_    0.963538 0.486976 0.562929 0.000000
H766  H     H_    0.937101 0.444355 0.580220 0.000000
H767  H     H_    0.027685 0.325485 0.583116 0.000000
H768  H     H_    0.127526 0.274640 0.599474 0.000000
H769  H     H_    0.056303 0.484408 0.571768 0.000000
H770  H     H_    0.366018 0.353947 0.600115 0.000000
C881  C     C_3   0.015173 0.418980 0.676544 0.000000
C882  C     C_R   0.079436 0.375967 0.680664 0.000000
C883  C     C_R   0.092783 0.342099 0.698948 0.000000
C884  C     C_R   0.151633 0.316439 0.705980 0.000000
C885  C     C_R   0.194530 0.322102 0.693458 0.000000
N221  N     N_R   0.250982 0.312714 0.698196 0.000000
C886  C     C_R   0.273615 0.317435 0.678012 0.000000
N222  N     N_R   0.235218 0.321120 0.661486 0.000000
C887  C     C_R   0.184111 0.333090 0.672634 0.000000
C888  C     C_R   0.126415 0.369675 0.666687 0.000000
S111  S     S_3+2 0.341687 0.326988 0.673256 0.000000
O331  O     O_2   0.329922 0.394408 0.676797 0.000000
O332  O     O_2   0.358929 0.318063 0.649468 0.000000
O333  O     O_3   0.410387 0.283198 0.683663 0.000000
H771  H     H_    0.987007 0.393995 0.677582 0.000000
H772  H     H_    0.012033 0.438769 0.660590 0.000000
H773  H     H_    0.997931 0.456993 0.688807 0.000000
H774  H     H_    0.056177 0.342353 0.708874 0.000000
H775  H     H_    0.162734 0.296464 0.721220 0.000000
H776  H     H_    0.118804 0.395047 0.652206 0.000000
H777  H     H_    0.439283 0.293007 0.675197 0.000000
C889  C     C_3   0.418511 0.343847 0.902350 0.000000
C890  C     C_R   0.355873 0.395249 0.903566 0.000000
C891  C     C_R   0.318854 0.404244 0.886442 0.000000
C892  C     C_R   0.258325 0.446898 0.888045 0.000000
C893  C     C_R   0.237281 0.481528 0.906657 0.000000
N223  N     N_R   0.179143 0.516084 0.913355 0.000000
C894  C     C_R   0.184358 0.528196 0.934557 0.000000
N224  N     N_R   0.243220 0.513549 0.939415 0.000000
C895  C     C_R   0.275118 0.477823 0.922470 0.000000
C896  C     C_R   0.333859 0.432012 0.921963 0.000000
S112  S     S_3+2 0.144741 0.504520 0.954219 0.000000
O334  O     O_2   0.138612 0.533590 0.976578 0.000000
O335  O     O_2   0.190537 0.438099 0.958740 0.000000
O336  O     O_3   0.081854 0.493225 0.951105 0.000000
H778  H     H_    0.416876 0.300220 0.897782 0.000000
H779  H     H_    0.438851 0.338537 0.918096 0.000000
H780  H     H_    0.446398 0.353789 0.890283 0.000000
H781  H     H_    0.336330 0.374661 0.872333 0.000000
H782  H     H_    0.228386 0.449275 0.875609 0.000000
H783  H     H_    0.360990 0.423458 0.935817 0.000000
H784  H     H_    0.094053 0.450606 0.955813 0.000000
C897  C     C_3   0.212308 0.361853 0.023242 0.000000
C898  C     C_R   0.240794 0.402063 0.016874 0.000000
C899  C     C_R   0.267286 0.393111 0.996626 0.000000
C900  C     C_R   0.277518 0.439277 0.987867 0.000000
C901  C     C_R   0.259660 0.492412 0.999905 0.000000
N225  N     N_R   0.246897 0.547856 0.992416 0.000000
C902  C     C_R   0.225100 0.585461 0.010539 0.000000
N226  N     N_R   0.232004 0.554560 0.029279 0.000000
C903  C     C_R   0.247850 0.496177 0.021435 0.000000
C904  C     C_R   0.236920 0.450343 0.030289 0.000000
S113  S     S_3+2 0.163523 0.658489 0.009285 0.000000
O337  O     O_2   0.124843 0.669570 0.029539 0.000000
O338  O     O_2   0.115719 0.661509 0.994022 0.000000
O339  O     O_3   0.173856 0.722846 0.007109 0.000000
H785  H     H_    0.182566 0.361116 0.010464 0.000000
H786  H     H_    0.183475 0.381425 0.037838 0.000000
H787  H     H_    0.247582 0.313991 0.025532 0.000000
H788  H     H_    0.273206 0.353514 0.986860 0.000000
H789  H     H_    0.291630 0.436611 0.971327 0.000000
H790  H     H_    0.222788 0.452382 0.046665 0.000000
H791  H     H_    0.176193 0.728204 0.991701 0.000000
C905  C     C_3   0.978264 0.678713 0.698041 0.000000
C906  C     C_R   0.991678 0.649799 0.719135 0.000000
C907  C     C_R   0.036156 0.589703 0.720154 0.000000
C908  C     C_R   0.057321 0.565534 0.739578 0.000000
C909  C     C_R   0.027850 0.597180 0.757984 0.000000
N227  N     N_R   0.056204 0.588312 0.776510 0.000000
C910  C     C_R   0.039282 0.649197 0.782542 0.000000
N228  N     N_R   0.983332 0.689895 0.774798 0.000000
C911  C     C_R   0.983935 0.657840 0.757015 0.000000
C912  C     C_R   0.967658 0.685055 0.737665 0.000000
S114  S     S_3+2 0.098883 0.667648 0.773130 0.000000
O340  O     O_2   0.154825 0.607616 0.766130 0.000000
O341  O     O_2   0.126073 0.695955 0.789068 0.000000
O342  O     O_3   0.087592 0.708032 0.750199 0.000000
H792  H     H_    0.021262 0.672257 0.689843 0.000000
H793  H     H_    0.947743 0.728861 0.699913 0.000000
H794  H     H_    0.956595 0.656079 0.688348 0.000000
H795  H     H_    0.059889 0.564695 0.705699 0.000000
H796  H     H_    0.101807 0.527360 0.740328 0.000000
H797  H     H_    0.945490 0.734573 0.736929 0.000000
H798  H     H_    0.105913 0.675778 0.738739 0.000000
C913  C     C_3   0.815609 0.744877 0.706030 0.000000
C914  C     C_R   0.802450 0.733839 0.728358 0.000000
C915  C     C_R   0.763292 0.708026 0.732270 0.000000
C916  C     C_R   0.743986 0.705102 0.752856 0.000000
C917  C     C_R   0.766474 0.725221 0.769249 0.000000
N229  N     N_R   0.747805 0.733753 0.789961 0.000000
C918  C     C_R   0.779908 0.763620 0.797873 0.000000
N230  N     N_R   0.823765 0.764594 0.783680 0.000000
C919  C     C_R   0.810272 0.744005 0.765537 0.000000
C920  C     C_R   0.826141 0.752317 0.745182 0.000000
S115  S     S_3+2 0.755990 0.810165 0.821983 0.000000
O343  O     O_2   0.689819 0.830297 0.829012 0.000000
O344  O     O_2   0.752782 0.873722 0.818709 0.000000
O345  O     O_3   0.793473 0.782552 0.844754 0.000000
H799  H     H_    0.841389 0.699956 0.697300 0.000000
H800  H     H_    0.842118 0.771605 0.705751 0.000000
H801  H     H_    0.772248 0.771743 0.698180 0.000000
H802  H     H_    0.744952 0.693389 0.719135 0.000000
H803  H     H_    0.712527 0.687185 0.755762 0.000000
H804  H     H_    0.850506 0.778941 0.742532 0.000000
H805  H     H_    0.822306 0.799796 0.845501 0.000000
C921  C     C_3   0.414433 0.105869 0.537073 0.000000
C922  C     C_R   0.390274 0.141770 0.557505 0.000000
C923  C     C_R   0.328088 0.177928 0.560754 0.000000
C924  C     C_R   0.304057 0.213553 0.579302 0.000000
C925  C     C_R   0.342758 0.204800 0.595531 0.000000
N231  N     N_R   0.327802 0.223432 0.616184 0.000000
C926  C     C_R   0.383188 0.190855 0.625078 0.000000
N232  N     N_R   0.429043 0.150141 0.612082 0.000000
C927  C     C_R   0.403210 0.162969 0.593068 0.000000
C928  C     C_R   0.428998 0.135764 0.573724 0.000000
S116  S     S_3+2 0.388271 0.173299 0.650178 0.000000
O346  O     O_2   0.328395 0.211899 0.661355 0.000000
O347  O     O_2   0.434656 0.185710 0.662247 0.000000
O348  O     O_3   0.398568 0.100008 0.652497 0.000000
H806  H     H_    0.394409 0.073379 0.534925 0.000000
H807  H     H_    0.464521 0.079195 0.537271 0.000000
H808  H     H_    0.402242 0.137720 0.523629 0.000000
H809  H     H_    0.298114 0.177708 0.548645 0.000000
H810  H     H_    0.255691 0.241612 0.581647 0.000000
H811  H     H_    0.477382 0.107942 0.571668 0.000000
H812  H     H_    0.435227 0.076085 0.643589 0.000000
C929  C     C_3   0.693438 0.772468 0.651396 0.000000
C930  C     C_R   0.645328 0.832122 0.644209 0.000000
C931  C     C_R   0.655687 0.883956 0.644277 0.000000
C932  C     C_R   0.610619 0.940736 0.638786 0.000000
C933  C     C_R   0.557388 0.943091 0.631674 0.000000
N233  N     N_R   0.510916 0.991649 0.623490 0.000000
C934  C     C_R   0.474111 0.966385 0.616486 0.000000
N234  N     N_R   0.491368 0.906982 0.623647 0.000000
C935  C     C_R   0.547791 0.892108 0.630608 0.000000
C936  C     C_R   0.590292 0.836183 0.637882 0.000000
S117  S     S_3+2 0.453557 0.982321 0.589275 0.000000
O349  O     O_2   0.497647 0.004382 0.579477 0.000000
O350  O     O_2   0.393141 0.038832 0.585671 0.000000
O351  O     O_3   0.460718 0.926814 0.570768 0.000000
H813  H     H_    0.735230 0.758732 0.641197 0.000000
H814  H     H_    0.678262 0.735838 0.650315 0.000000
H815  H     H_    0.703344 0.778179 0.668142 0.000000
H816  H     H_    0.698913 0.880224 0.649076 0.000000
H817  H     H_    0.618908 0.980842 0.638839 0.000000
H818  H     H_    0.580909 0.796769 0.638831 0.000000
H819  H     H_    0.473508 0.939869 0.557487 0.000000
C937  C     C_3   0.949441 0.287083 0.355394 0.000000
C938  C     C_R   0.933474 0.351188 0.362937 0.000000
C939  C     C_R   0.978278 0.370934 0.362885 0.000000
C940  C     C_R   0.965998 0.428453 0.371464 0.000000
C941  C     C_R   0.908535 0.465678 0.379329 0.000000
N235  N     N_R   0.889565 0.518358 0.391166 0.000000
C942  C     C_R   0.833479 0.526951 0.399027 0.000000
N236  N     N_R   0.813756 0.487503 0.389351 0.000000
C943  C     C_R   0.864102 0.447271 0.378550 0.000000
C944  C     C_R   0.875621 0.389718 0.371120 0.000000
S118  S     S_3+2 0.825406 0.537599 0.427244 0.000000
O352  O     O_2   0.889871 0.517336 0.434662 0.000000
O353  O     O_2   0.813386 0.489429 0.438988 0.000000
O354  O     O_3   0.783944 0.606454 0.440664 0.000000
H820  H     H_    0.962652 0.282205 0.338251 0.000000
H821  H     H_    0.910263 0.276896 0.357767 0.000000
H822  H     H_    0.988007 0.253958 0.364388 0.000000
H823  H     H_    0.023987 0.339727 0.357301 0.000000
H824  H     H_    0.001697 0.441079 0.374034 0.000000
H825  H     H_    0.842341 0.373563 0.374033 0.000000
H826  H     H_    0.755524 0.633085 0.430347 0.000000
C945  C     C_3   0.701766 0.564248 0.473376 0.000000
C946  C     C_R   0.677564 0.595943 0.453241 0.000000
C947  C     C_R   0.644761 0.659725 0.453339 0.000000
C948  C     C_R   0.612970 0.688087 0.435786 0.000000
C949  C     C_R   0.624593 0.653308 0.417180 0.000000
N237  N     N_R   0.591115 0.667605 0.399731 0.000000
C950  C     C_R   0.615165 0.611814 0.388271 0.000000
N238  N     N_R   0.665010 0.566913 0.397287 0.000000
C951  C     C_R   0.666167 0.592934 0.416119 0.000000
C952  C     C_R   0.687437 0.562090 0.434377 0.000000
S119  S     S_3+2 0.567548 0.584140 0.376067 0.000000
O355  O     O_2   0.588673 0.554602 0.353872 0.000000
O356  O     O_2   0.502478 0.631655 0.372619 0.000000
O357  O     O_3   0.560132 0.529012 0.390771 0.000000
H827  H     H_    0.730668 0.583197 0.480567 0.000000
H828  H     H_    0.728869 0.513872 0.470266 0.000000
H829  H     H_    0.663363 0.571877 0.484537 0.000000
H830  H     H_    0.640128 0.687039 0.467589 0.000000
H831  H     H_    0.577321 0.734462 0.437598 0.000000
H832  H     H_    0.708339 0.512839 0.434067 0.000000
H833  H     H_    0.602155 0.499156 0.393866 0.000000
C953  C     C_3   0.340698 0.710587 0.358053 0.000000
C954  C     C_R   0.383881 0.732946 0.349947 0.000000
C955  C     C_R   0.389355 0.738608 0.328204 0.000000
C956  C     C_R   0.429275 0.759254 0.320147 0.000000
C957  C     C_R   0.462182 0.774379 0.334311 0.000000
N239  N     N_R   0.500316 0.798570 0.329744 0.000000
C958  C     C_R   0.520850 0.803231 0.349642 0.000000
N240  N     N_R   0.500272 0.778700 0.365896 0.000000
C959  C     C_R   0.460127 0.764906 0.355622 0.000000
C960  C     C_R   0.418839 0.746740 0.363944 0.000000
S120  S     S_3+2 0.539844 0.863544 0.354974 0.000000
O358  O     O_2   0.594905 0.857106 0.341541 0.000000
O359  O     O_2   0.561588 0.864419 0.377076 0.000000
O360  O     O_3   0.484057 0.937301 0.353330 0.000000
H834  H     H_    0.294328 0.743964 0.353780 0.000000
H835  H     H_    0.343299 0.706607 0.375554 0.000000
H836  H     H_    0.352192 0.664687 0.350594 0.000000
H837  H     H_    0.362244 0.726901 0.317528 0.000000
H838  H     H_    0.433993 0.764031 0.303240 0.000000
H839  H     H_    0.414472 0.741761 0.380736 0.000000
H840  H     H_    0.461829 0.946244 0.367320 0.000000

loop_
_geom_bond_atom_site_label_1
_geom_bond_atom_site_label_2
_geom_bond_distance
_geom_bond_site_symmetry_2
_ccdc_geom_bond_type
Zn1   N2    2.125 .      S
Zn1   N3    2.096 .      S
Zn1   N6    2.115 .      S
Zn1   N195  2.104 .      S
Zn2   N13   2.113 .      S
Zn2   N16   2.069 .      S
Zn2   N170  2.021 .      S
Zn2   N227  2.229 .      S
Zn3   N8    2.168 .      S
Zn3   N9    2.107 .      S
Zn3   N174  2.164 .      S
Zn3   N229  2.142 .      S
Zn4   N10   2.117 .      S
Zn4   N12   2.198 .      S
Zn4   N20   2.180 .      S
Zn4   N43   2.138 .      S
Zn5   N14   2.120 .      S
Zn5   N27   2.086 .      S
Zn5   N50   2.080 .      S
Zn5   N223  2.054 .      S
Zn6   N15   2.128 .      S
Zn6   N17   2.071 .      S
Zn6   N42   2.147 .      S
Zn6   N221  2.169 .      S
Zn7   N1    2.090 .      S
Zn7   N84   2.142 .      S
Zn7   N120  2.195 .      S
Zn7   N145  2.056 .      S
Zn8   N58   2.175 .      S
Zn8   N61   2.064 .      S
Zn8   N70   2.096 .      S
Zn8   N190  2.121 .      S
Zn9   N11   2.245 .      S
Zn9   N73   2.106 .      S
Zn9   N161  2.082 .      S
Zn9   N234  2.169 .      S
Zn10  N18   2.081 .      S
Zn10  N19   2.208 1_545  S
Zn10  N114  2.052 .      S
Zn10  N158  2.057 .      S
Zn11  N21   2.115 .      S
Zn11  N24   2.171 .      S
Zn11  N125  2.082 .      S
Zn11  N176  2.032 .      S
Zn12  N26   2.147 .      S
Zn12  N28   2.158 .      S
Zn12  N80   2.077 .      S
Zn12  N172  1.986 .      S
Zn13  N30   2.193 .      S
Zn13  N31   2.198 .      S
Zn13  N86   2.186 .      S
Zn13  N187  2.182 .      S
Zn14  N34   2.047 .      S
Zn14  N36   2.170 .      S
Zn14  N38   2.092 .      S
Zn14  N128  2.133 .      S
Zn15  N40   2.091 .      S
Zn15  N41   2.177 .      S
Zn15  N44   2.170 .      S
Zn15  N155  2.077 .      S
Zn16  N46   2.033 .      S
Zn16  N47   2.137 .      S
Zn16  N49   2.084 .      S
Zn16  N151  2.104 .      S
Zn17  N51   2.079 .      S
Zn17  N53   2.076 .      S
Zn17  N102  2.170 .      S
Zn17  N168  2.080 .      S
Zn18  N56   2.213 .      S
Zn18  N63   2.070 .      S
Zn18  N194  2.075 .      S
Zn18  N220  2.102 .      S
Zn19  N29   2.109 .      S
Zn19  N57   2.202 .      S
Zn19  N200  2.124 .      S
Zn19  N213  2.080 .      S
Zn20  N7    2.143 .      S
Zn20  N25   2.151 .      S
Zn20  N48   2.110 .      S
Zn20  N59   2.133 .      S
Zn21  N35   2.168 .      S
Zn21  N52   2.126 .      S
Zn21  N62   2.015 .      S
Zn21  N226  2.201 .      S
Zn22  N64   2.078 .      S
Zn22  N65   2.098 .      S
Zn22  N96   2.154 .      S
Zn22  N185  1.966 .      S
Zn23  N68   2.018 .      S
Zn23  N69   1.999 .      S
Zn23  N130  2.080 .      S
Zn23  N201  2.041 .      S
Zn24  N32   2.235 .      S
Zn24  N72   2.173 1_545  S
Zn24  N142  2.228 .      S
Zn24  N203  2.227 .      S
Zn25  N66   2.115 .      S
Zn25  N74   2.111 .      S
Zn25  N140  2.097 .      S
Zn25  N197  2.181 .      S
Zn26  N76   2.216 1_556  S
Zn26  N77   2.140 .      S
Zn26  N79   2.100 .      S
Zn26  N81   2.188 .      S
Zn27  N83   2.166 .      S
Zn27  N85   2.149 .      S
Zn27  N87   2.111 .      S
Zn27  N89   2.186 .      S
Zn28  N91   2.228 .      S
Zn28  N94   2.126 .      S
Zn28  N95   2.105 1_545  S
Zn28  N98   2.250 .      S
Zn29  N99   2.160 .      S
Zn29  N101  2.100 .      S
Zn29  N103  2.126 .      S
Zn29  N106  2.053 .      S
Zn30  N107  2.179 .      S
Zn30  N110  2.136 .      S
Zn30  N112  2.078 .      S
Zn30  N113  2.097 1_655  S
Zn31  N90   2.175 .      S
Zn31  N104  2.125 .      S
Zn31  N116  2.086 .      S
Zn31  N118  2.118 .      S
Zn32  N119  2.144 .      S
Zn32  N122  2.113 .      S
Zn32  N123  2.173 1_545  S
Zn32  N126  2.104 1_545  S
Zn33  N75   2.233 .      S
Zn33  N100  2.181 .      S
Zn33  N127  2.164 .      S
Zn33  N129  2.136 1_655  S
Zn34  N92   2.195 .      S
Zn34  N121  2.202 .      S
Zn34  N131  2.194 .      S
Zn34  N133  2.014 .      S
Zn35  N37   2.147 .      S
Zn35  N54   2.108 .      S
Zn35  N136  2.270 .      S
Zn35  N144  2.084 .      S
Zn36  N4    2.089 .      S
Zn36  N138  2.111 .      S
Zn36  N139  2.115 .      S
Zn36  N181  2.132 .      S
Zn37  N67   2.120 .      S
Zn37  N141  2.216 .      S
Zn37  N143  2.060 1_545  S
Zn37  N191  2.096 .      S
Zn38  N146  2.127 .      S
Zn38  N147  2.058 .      S
Zn38  N236  2.099 .      S
Zn38  N238  2.048 .      S
Zn39  N117  2.041 .      S
Zn39  N148  2.027 .      S
Zn39  N211  2.086 .      S
Zn39  N217  2.061 .      S
Zn40  N78   2.109 .      S
Zn40  N108  2.202 .      S
Zn40  N150  2.133 1_645  S
Zn40  N152  2.094 1_545  S
Zn41  N97   2.236 .      S
Zn41  N109  2.193 .      S
Zn41  N154  2.067 1_545  S
Zn41  N156  2.073 .      S
Zn42  N93   2.144 .      S
Zn42  N157  2.109 .      S
Zn42  N160  2.156 .      S
Zn42  N162  2.184 1_545  S
Zn43  N82   2.146 .      S
Zn43  N164  2.094 .      S
Zn43  N165  2.176 .      S
Zn43  N167  2.004 1_556  S
Zn44  N111  2.041 .      S
Zn44  N169  2.057 .      S
Zn44  N171  2.097 .      S
Zn44  N173  2.186 .      S
Zn45  N88   2.103 .      S
Zn45  N175  2.084 .      S
Zn45  N177  2.054 .      S
Zn45  N180  2.135 .      S
Zn46  N124  2.153 1_455  S
Zn46  N182  2.145 .      S
Zn46  N184  2.074 .      S
Zn46  N186  2.020 .      S
Zn47  N105  2.060 .      S
Zn47  N188  2.029 .      S
Zn47  N189  2.079 .      S
Zn47  N192  2.116 .      S
Zn48  N132  2.216 .      S
Zn48  N193  2.085 .      S
Zn48  N196  2.028 .      S
Zn48  N198  2.173 .      S
Zn49  N115  2.116 1_455  S
Zn49  N199  2.149 .      S
Zn49  N202  1.936 .      S
Zn49  N204  2.170 .      S
Zn50  N33   2.091 .      S
Zn50  N149  2.188 .      S
Zn50  N206  2.176 .      S
Zn50  N207  2.116 .      S
Zn51  N5    2.113 .      S
Zn51  N55   2.160 .      S
Zn51  N183  2.081 .      S
Zn51  N210  2.156 .      S
Zn52  N71   2.210 .      S
Zn52  N178  2.023 .      S
Zn52  N212  2.037 .      S
Zn52  N239  2.104 .      S
Zn53  N179  2.167 .      S
Zn53  N214  2.151 1_655  S
Zn53  N216  2.118 .      S
Zn53  N218  2.049 .      S
Zn54  N159  2.211 .      S
Zn54  N219  2.078 .      S
Zn54  N222  2.202 .      S
Zn54  N231  2.171 .      S
Zn55  N166  2.215 .      S
Zn55  N208  2.097 .      S
Zn55  N224  2.087 .      S
Zn55  N225  2.078 .      S
Zn56  N45   2.117 .      S
Zn56  N153  2.073 .      S
Zn56  N228  2.219 .      S
Zn56  N230  2.134 .      S
Zn57  N60   2.106 .      S
Zn57  N135  2.226 1_556  S
Zn57  N163  2.117 .      S
Zn57  N205  2.185 .      S
Zn58  N39   2.205 .      S
Zn58  N134  2.022 .      S
Zn58  N232  2.150 .      S
Zn58  N233  2.079 1_545  S
Zn59  N22   2.124 .      S
Zn59  N209  2.105 1_655  S
Zn59  N215  2.145 .      S
Zn59  N235  2.090 .      S
Zn60  N23   2.100 .      S
Zn60  N137  2.104 .      S
Zn60  N237  2.065 .      S
Zn60  N240  2.137 .      S
C1    C2    1.488 .      S
C1    H1    1.106 .      S
C1    H2    1.109 .      S
C1    H3    1.109 .      S
C3    H4    1.077 .      S
C4    H5    1.076 .      S
C6    S1    1.784 .      S
C8    H6    1.048 .      S
S1    O3    1.714 .      S
O3    H7    0.990 .      S
C9    C10   1.490 .      S
C9    H8    1.102 .      S
C9    H9    1.109 .      S
C9    H10   1.107 .      S
C11   H11   1.080 .      S
C12   H12   1.070 .      S
C14   S2    1.764 .      S
C16   H13   1.074 .      S
S2    O6    1.716 .      S
O6    H14   0.990 .      S
C17   C18   1.489 .      S
C17   H15   1.108 .      S
C17   H16   1.107 .      S
C17   H17   1.109 .      S
C19   H18   1.080 .      S
C20   H19   1.062 .      S
C22   S3    1.804 .      S
C24   H20   1.075 .      S
S3    O9    1.711 .      S
O9    H21   0.989 .      S
C25   C26   1.488 .      S
C25   H22   1.107 .      S
C25   H23   1.109 .      S
C25   H24   1.109 .      S
C27   H25   1.081 .      S
C28   H26   1.079 .      S
C30   S4    1.647 .      S
C32   H27   1.079 .      S
S4    O12   1.680 .      S
O12   H28   0.976 .      S
C33   C34   1.488 .      S
C33   H29   1.109 .      S
C33   H30   1.109 .      S
C33   H31   1.109 .      S
C35   H32   1.081 .      S
C36   H33   1.069 .      S
C38   S5    1.766 .      S
C40   H34   1.072 .      S
S5    O15   1.714 .      S
O15   H35   0.989 .      S
C41   C42   1.488 .      S
C41   H36   1.109 .      S
C41   H37   1.109 .      S
C41   H38   1.109 .      S
C43   H39   1.081 .      S
C44   H40   1.080 .      S
C46   S6    1.718 .      S
C48   H41   1.081 .      S
S6    O18   1.697 .      S
O18   H42   0.981 1_565  S
H42   O18   0.981 1_545  S
C49   C50   1.483 .      S
C49   H43   1.109 .      S
C49   H44   1.102 .      S
C49   H45   1.109 .      S
C51   H46   1.081 .      S
C52   H47   1.068 .      S
C54   S7    1.781 .      S
C56   H48   1.067 .      S
S7    O21   1.712 .      S
O21   H49   0.990 .      S
C57   C58   1.488 .      S
C57   H50   1.109 .      S
C57   H51   1.109 .      S
C57   H52   1.109 .      S
C59   H53   1.081 .      S
C60   H54   1.052 .      S
C62   S8    1.799 .      S
C64   H55   1.056 .      S
S8    O24   1.713 .      S
O24   H56   0.990 .      S
C65   C66   1.456 .      S
C65   H57   1.068 .      S
C65   H58   1.096 .      S
C65   H59   1.086 .      S
C67   H60   1.051 .      S
C68   H61   1.064 .      S
C70   S9    1.788 .      S
C72   H62   1.055 .      S
S9    O27   1.703 .      S
O27   H63   0.988 .      S
C73   C74   1.488 .      S
C73   H64   1.108 .      S
C73   H65   1.109 .      S
C73   H66   1.109 .      S
C75   H67   1.080 .      S
C76   H68   1.079 .      S
N19   Zn10  2.208 1_565  S
C78   S10   1.708 .      S
C80   H69   1.081 .      S
S10   O30   1.697 1_565  S
O30   S10   1.697 1_545  S
O30   H70   0.982 .      S
C81   C82   1.491 .      S
C81   H71   1.105 .      S
C81   H72   1.106 .      S
C81   H73   1.107 .      S
C83   H74   1.081 .      S
C84   H75   1.059 .      S
C86   S11   1.754 .      S
C88   H76   1.066 .      S
S11   O33   1.712 .      S
O33   H77   0.988 .      S
C89   C90   1.490 1_545  S
C89   H78   1.109 .      S
C89   H79   1.107 .      S
C89   H80   1.108 .      S
C90   C89   1.490 1_565  S
C91   H81   1.081 .      S
C92   H82   1.057 .      S
C94   S12   1.725 .      S
C96   H83   1.066 .      S
S12   O36   1.681 .      S
O36   H84   0.983 .      S
C97   C98   1.489 .      S
C97   H85   1.107 .      S
C97   H86   1.106 .      S
C97   H87   1.106 .      S
C99   H88   1.078 .      S
C100  H89   1.070 .      S
C102  S13   1.766 .      S
C104  H90   1.056 .      S
S13   O39   1.713 .      S
O39   H91   0.989 .      S
C105  C106  1.488 .      S
C105  H92   1.108 .      S
C105  H93   1.109 .      S
C105  H94   1.109 .      S
C107  H95   1.081 .      S
C108  H96   1.074 .      S
C110  S14   1.785 .      S
C112  H97   1.077 .      S
S14   O42   1.701 .      S
O42   H98   0.981 .      S
C113  C114  1.488 .      S
C113  H99   1.109 .      S
C113  H100  1.109 .      S
C113  H101  1.109 .      S
C115  H102  1.081 .      S
C116  H103  1.074 .      S
C118  S15   1.702 .      S
C120  H104  1.077 .      S
S15   O45   1.681 .      S
O45   H105  0.978 .      S
C121  C122  1.489 .      S
C121  H106  1.109 .      S
C121  H107  1.106 .      S
C121  H108  1.109 .      S
C123  H109  1.081 .      S
C124  H110  1.062 .      S
C126  S16   1.844 .      S
C128  H111  1.066 .      S
S16   O48   1.716 .      S
O48   H112  0.990 1_545  S
H112  O48   0.990 1_565  S
C129  C130  1.459 1_545  S
C129  H113  1.102 .      S
C129  H114  1.097 .      S
C129  H115  1.106 .      S
C130  C129  1.459 1_565  S
C131  H116  1.081 1_565  S
C132  H117  1.053 .      S
C134  S17   1.805 .      S
C136  H118  1.073 .      S
S17   O51   1.706 .      S
O51   H119  0.990 .      S
H116  C131  1.081 1_545  S
C137  C138  1.488 .      S
C137  H120  1.109 .      S
C137  H121  1.109 .      S
C137  H122  1.109 .      S
C139  H123  1.081 1_455  S
C140  H124  1.072 .      S
C142  S18   1.733 .      S
C144  H125  1.076 .      S
S18   O54   1.697 .      S
O54   H126  0.977 .      S
H123  C139  1.081 1_655  S
C145  C146  1.488 .      S
C145  H127  1.109 .      S
C145  H128  1.109 .      S
C145  H129  1.108 .      S
C147  H130  1.081 .      S
C148  H131  1.076 .      S
C150  S19   1.676 .      S
C152  H132  1.073 .      S
S19   O57   1.689 .      S
O57   H133  0.986 .      S
C153  C154  1.483 .      S
C153  H134  1.103 .      S
C153  H135  1.109 .      S
C153  H136  1.109 .      S
C155  H137  1.081 .      S
C156  H138  1.040 .      S
C158  S20   1.756 .      S
C160  H139  1.065 .      S
S20   O60   1.664 .      S
O60   H140  0.987 .      S
C161  C162  1.488 .      S
C161  H141  1.109 .      S
C161  H142  1.109 .      S
C161  H143  1.109 .      S
C163  H144  1.081 .      S
C164  H145  1.074 .      S
C166  S21   1.761 .      S
C168  H146  1.081 .      S
S21   O63   1.713 .      S
O63   H147  0.990 .      S
C169  C170  1.489 .      S
C169  H148  1.109 .      S
C169  H149  1.109 .      S
C169  H150  1.109 .      S
C171  H151  1.081 .      S
C172  H152  1.074 .      S
C174  S22   1.784 .      S
C176  H153  1.067 .      S
S22   O66   1.708 .      S
O66   H154  0.990 .      S
C177  C178  1.487 1_545  S
C177  H155  1.107 .      S
C177  H156  1.105 .      S
C177  H157  1.109 .      S
C178  C177  1.487 1_565  S
C179  H158  1.080 1_565  S
C180  H159  1.050 .      S
C182  S23   1.821 1_655  S
C184  H160  1.076 .      S
S23   C182  1.821 1_455  S
S23   O69   1.709 .      S
O69   H161  0.990 .      S
H158  C179  1.080 1_545  S
C185  C186  1.488 .      S
C185  H162  1.109 .      S
C185  H163  1.109 .      S
C185  H164  1.109 .      S
C187  H165  1.078 .      S
C188  H166  1.079 .      S
C190  S24   1.801 .      S
C192  H167  1.075 .      S
S24   O72   1.714 .      S
O72   H168  0.990 .      S
C193  C194  1.486 .      S
C193  H169  1.107 .      S
C193  H170  1.108 .      S
C193  H171  1.103 .      S
C195  H172  1.081 .      S
C196  H173  1.056 .      S
C198  S25   1.723 1_455  S
C200  H174  1.071 .      S
S25   C198  1.723 1_655  S
S25   O75   1.681 .      S
O75   H175  0.984 1_655  S
H175  O75   0.984 1_455  S
C201  C202  1.465 .      S
C201  H176  1.083 1_554  S
C201  H177  1.091 .      S
C201  H178  1.103 1_554  S
C203  H179  1.065 .      S
C204  H180  1.055 .      S
C206  S26   1.782 .      S
C208  H181  1.060 .      S
S26   O78   1.714 .      S
O78   H182  0.990 .      S
H176  C201  1.083 1_556  S
H178  C201  1.103 1_556  S
C209  C210  1.488 .      S
C209  H183  1.109 .      S
C209  H184  1.109 .      S
C209  H185  1.109 .      S
C211  H186  1.081 .      S
C212  H187  1.081 .      S
C214  S27   1.819 .      S
C216  H188  1.072 .      S
S27   O81   1.717 .      S
O81   H189  0.990 .      S
C217  C218  1.489 .      S
C217  H190  1.109 .      S
C217  H191  1.107 .      S
C217  H192  1.109 .      S
C219  H193  1.081 .      S
C220  H194  1.071 .      S
C222  S28   1.731 .      S
C224  H195  1.066 .      S
S28   O84   1.704 .      S
O84   H196  0.982 .      S
C225  C226  1.488 1_655  S
C225  H197  1.109 .      S
C225  H198  1.109 1_655  S
C225  H199  1.109 .      S
C226  C225  1.488 1_455  S
C227  H200  1.080 1_455  S
C228  H201  1.071 .      S
C230  S29   1.790 .      S
C232  H202  1.077 .      S
S29   O87   1.714 .      S
O87   H203  0.990 .      S
H198  C225  1.109 1_455  S
H200  C227  1.080 1_655  S
C233  C234  1.488 .      S
C233  H204  1.109 .      S
C233  H205  1.108 1_556  S
C233  H206  1.109 .      S
C235  H207  1.081 .      S
C236  H208  1.074 .      S
C238  S30   1.747 .      S
C240  H209  1.068 .      S
S30   O90   1.713 .      S
O90   H210  0.987 .      S
H205  C233  1.108 1_554  S
C241  C242  1.487 .      S
C241  H211  1.108 .      S
C241  H212  1.109 .      S
C241  H213  1.109 .      S
C243  H214  1.081 .      S
C244  H215  1.055 .      S
C246  S31   1.803 .      S
C248  H216  1.070 .      S
S31   O93   1.715 .      S
O93   H217  0.990 .      S
C249  C250  1.488 .      S
C249  H218  1.109 .      S
C249  H219  1.109 .      S
C249  H220  1.109 .      S
C251  H221  1.081 .      S
C252  H222  1.074 .      S
C254  S32   1.806 .      S
C256  H223  1.081 .      S
S32   O96   1.716 1_455  S
O96   S32   1.716 1_655  S
O96   H224  0.990 .      S
C257  C258  1.485 .      S
C257  H225  1.102 .      S
C257  H226  1.102 .      S
C257  H227  1.106 1_565  S
C259  H228  1.078 .      S
C260  H229  1.071 .      S
C262  S33   1.735 .      S
C264  H230  1.071 .      S
S33   O99   1.685 .      S
O99   H231  0.982 .      S
H227  C257  1.106 1_545  S
C265  C266  1.489 .      S
C265  H232  1.108 .      S
C265  H233  1.109 .      S
C265  H234  1.109 .      S
C267  H235  1.067 .      S
C268  H236  1.075 .      S
C270  S34   1.676 .      S
C272  H237  1.074 .      S
S34   O102  1.702 .      S
O102  H238  0.985 .      S
C273  C274  1.489 .      S
C273  H239  1.109 .      S
C273  H240  1.108 .      S
C273  H241  1.108 .      S
C275  H242  1.081 .      S
C276  H243  1.079 .      S
C278  S35   1.770 .      S
C280  H244  1.065 .      S
S35   O105  1.706 .      S
O105  H245  0.987 .      S
C281  C282  1.488 .      S
C281  H246  1.109 .      S
C281  H247  1.108 .      S
C281  H248  1.109 .      S
C283  H249  1.081 .      S
C284  H250  1.070 .      S
C286  S36   1.712 .      S
N72   Zn24  2.173 1_565  S
C288  H251  1.071 .      S
S36   O108  1.696 .      S
O108  H252  0.989 .      S
C289  C290  1.489 .      S
C289  H253  1.108 .      S
C289  H254  1.108 .      S
C289  H255  1.108 .      S
C291  H256  1.081 .      S
C292  H257  1.059 .      S
C294  S37   1.791 .      S
C296  H258  1.067 .      S
S37   O111  1.705 .      S
O111  H259  0.988 .      S
C297  C298  1.489 .      S
C297  H260  1.108 .      S
C297  H261  1.104 1_554  S
C297  H262  1.109 .      S
C299  H263  1.079 .      S
C300  H264  1.070 .      S
C302  S38   1.800 .      S
N76   Zn26  2.216 1_554  S
C304  H265  1.068 1_554  S
S38   O114  1.710 1_554  S
O114  S38   1.710 1_556  S
O114  H266  0.990 1_655  S
H261  C297  1.104 1_556  S
H265  C304  1.068 1_556  S
H266  O114  0.990 1_455  S
C305  C306  1.483 .      S
C305  H267  1.109 .      S
C305  H268  1.104 .      S
C305  H269  1.109 .      S
C307  H270  1.081 .      S
C308  H271  1.055 .      S
C310  S39   1.783 .      S
C312  H272  1.070 .      S
S39   O117  1.716 1_655  S
O117  S39   1.716 1_455  S
O117  H273  0.989 .      S
C313  C314  1.486 1_554  S
C313  H274  1.109 .      S
C313  H275  1.108 1_554  S
C313  H276  1.108 1_655  S
C314  C313  1.486 1_556  S
C315  H277  1.080 .      S
C316  H278  1.070 1_556  S
C318  S40   1.783 .      S
C320  H279  1.077 .      S
S40   O120  1.707 .      S
O120  H280  0.991 .      S
H275  C313  1.108 1_556  S
H276  C313  1.108 1_455  S
H278  C316  1.070 1_554  S
C321  C322  1.484 .      S
C321  H281  1.109 .      S
C321  H282  1.105 .      S
C321  H283  1.109 .      S
C323  H284  1.081 .      S
C324  H285  1.057 .      S
C326  S41   1.783 1_556  S
C328  H286  1.072 .      S
S41   C326  1.783 1_554  S
S41   O123  1.712 .      S
O123  H287  0.990 .      S
C329  C330  1.483 .      S
C329  H288  1.109 .      S
C329  H289  1.108 .      S
C329  H290  1.109 .      S
C331  H291  1.080 .      S
C332  H292  1.071 .      S
C334  S42   1.804 .      S
C336  H293  1.057 .      S
S42   O126  1.716 .      S
O126  H294  0.990 .      S
C337  C338  1.488 .      S
C337  H295  1.109 .      S
C337  H296  1.109 .      S
C337  H297  1.109 .      S
C339  H298  1.081 .      S
C340  H299  1.074 .      S
C342  S43   1.733 .      S
C344  H300  1.058 .      S
S43   O129  1.700 .      S
O129  H301  0.989 .      S
C345  C346  1.488 .      S
C345  H302  1.109 .      S
C345  H303  1.109 .      S
C345  H304  1.109 .      S
C347  H305  1.080 .      S
C348  H306  1.069 .      S
C350  S44   1.807 .      S
C352  H307  1.072 .      S
S44   O132  1.701 .      S
O132  H308  0.990 .      S
C353  C354  1.483 .      S
C353  H309  1.106 .      S
C353  H310  1.107 .      S
C353  H311  1.109 .      S
C355  H312  1.081 .      S
C356  H313  1.026 .      S
C358  S45   1.787 .      S
C360  H314  1.046 .      S
S45   O135  1.710 .      S
O135  H315  0.989 .      S
C361  C362  1.488 .      S
C361  H316  1.109 .      S
C361  H317  1.109 .      S
C361  H318  1.109 .      S
C363  H319  1.081 .      S
C364  H320  1.076 .      S
C366  S46   1.777 .      S
C368  H321  1.076 .      S
S46   O138  1.712 1_545  S
O138  S46   1.712 1_565  S
O138  H322  0.990 .      S
C369  C370  1.489 .      S
C369  H323  1.109 .      S
C369  H324  1.109 .      S
C369  H325  1.109 1_655  S
C371  H326  1.081 .      S
C372  H327  1.066 .      S
C374  S47   1.764 1_545  S
C376  H328  1.065 .      S
S47   C374  1.764 1_565  S
S47   O141  1.715 .      S
O141  H329  0.990 1_565  S
H325  C369  1.109 1_455  S
H329  O141  0.990 1_545  S
C377  C378  1.487 .      S
C377  H330  1.106 .      S
C377  H331  1.109 .      S
C377  H332  1.109 .      S
C379  H333  1.081 .      S
C380  H334  1.069 .      S
N95   Zn28  2.105 1_565  S
C382  S48   1.792 .      S
C384  H335  1.065 1_655  S
S48   O144  1.709 .      S
O144  H336  0.990 .      S
H335  C384  1.065 1_455  S
C385  C386  1.488 .      S
C385  H337  1.109 .      S
C385  H338  1.104 .      S
C385  H339  1.108 .      S
C387  H340  1.080 .      S
C388  H341  1.056 .      S
C390  S49   1.824 .      S
C392  H342  1.062 .      S
S49   O147  1.713 .      S
O147  H343  0.990 1_655  S
H343  O147  0.990 1_455  S
C393  C394  1.489 .      S
C393  H344  1.109 .      S
C393  H345  1.106 .      S
C393  H346  1.108 .      S
C395  H347  1.081 .      S
C396  H348  1.062 .      S
C398  S50   1.795 .      S
C400  H349  1.074 .      S
S50   O150  1.718 .      S
O150  H350  0.990 .      S
C401  C402  1.491 .      S
C401  H351  1.107 .      S
C401  H352  1.107 .      S
C401  H353  1.109 .      S
C403  H354  1.081 .      S
C404  H355  1.076 .      S
C406  S51   1.790 .      S
C408  H356  1.046 .      S
S51   O153  1.702 .      S
O153  H357  0.986 .      S
C409  C410  1.491 .      S
C409  H358  1.108 .      S
C409  H359  1.107 .      S
C409  H360  1.108 .      S
C411  H361  1.068 .      S
C412  H362  1.078 .      S
C414  S52   1.762 .      S
C416  H363  1.080 .      S
S52   O156  1.713 .      S
O156  H364  0.990 .      S
C417  C418  1.464 .      S
C417  H365  1.106 .      S
C417  H366  1.105 .      S
C417  H367  1.108 .      S
C419  H368  1.081 .      S
C420  H369  1.064 .      S
C422  S53   1.797 .      S
C424  H370  1.074 .      S
S53   O159  1.715 .      S
O159  H371  0.990 .      S
C425  C426  1.485 .      S
C425  H372  1.109 .      S
C425  H373  1.109 .      S
C425  H374  1.109 .      S
C427  H375  1.079 .      S
C428  H376  1.069 .      S
C430  S54   1.780 .      S
C432  H377  1.066 .      S
S54   O162  1.712 .      S
O162  H378  0.989 .      S
C433  C434  1.489 .      S
C433  H379  1.109 .      S
C433  H380  1.109 .      S
C433  H381  1.109 .      S
C435  H382  1.081 .      S
C436  H383  1.077 .      S
C438  S55   1.764 .      S
C440  H384  1.071 .      S
S55   O165  1.712 1_645  S
O165  S55   1.712 1_465  S
O165  H385  0.990 .      S
C441  C442  1.485 .      S
C441  H386  1.108 .      S
C441  H387  1.101 .      S
C441  H388  1.108 .      S
C443  H389  1.081 .      S
C444  H390  1.069 .      S
C446  S56   1.788 .      S
C448  H391  1.061 .      S
S56   O168  1.712 .      S
O168  H392  0.990 .      S
C449  C450  1.490 .      S
C449  H393  1.109 .      S
C449  H394  1.108 .      S
C449  H395  1.102 .      S
C451  H396  1.074 .      S
C452  H397  1.080 .      S
N113  Zn30  2.097 1_455  S
C454  S57   1.801 .      S
C456  H398  1.079 .      S
S57   O171  1.699 1_455  S
O171  S57   1.699 1_655  S
O171  H399  0.990 .      S
C457  C458  1.487 .      S
C457  H400  1.109 .      S
C457  H401  1.107 .      S
C457  H402  1.109 .      S
C459  H403  1.081 1_655  S
C460  H404  1.067 .      S
N115  Zn49  2.116 1_655  S
C462  S58   1.802 .      S
C464  H405  1.079 .      S
S58   O174  1.710 .      S
O174  H406  0.990 .      S
H403  C459  1.081 1_455  S
C465  C466  1.471 .      S
C465  H407  1.108 .      S
C465  H408  1.094 .      S
C465  H409  1.105 .      S
C467  H410  1.081 .      S
C468  H411  1.057 .      S
C470  S59   1.793 .      S
C472  H412  1.075 .      S
S59   O177  1.716 .      S
O177  H413  0.989 .      S
C473  C474  1.489 .      S
C473  H414  1.108 .      S
C473  H415  1.109 .      S
C473  H416  1.109 .      S
C475  H417  1.081 .      S
C476  H418  1.076 .      S
C478  S60   1.786 .      S
C480  H419  1.071 .      S
S60   O180  1.716 .      S
O180  H420  0.990 .      S
C481  C482  1.489 .      S
C481  H421  1.106 .      S
C481  H422  1.107 .      S
C481  H423  1.103 .      S
C483  H424  1.081 .      S
C484  H425  1.066 .      S
C486  S61   1.793 .      S
C488  H426  1.079 .      S
S61   O183  1.716 .      S
O183  H427  0.990 .      S
C489  C490  1.488 .      S
C489  H428  1.109 .      S
C489  H429  1.104 .      S
C489  H430  1.109 .      S
C491  H431  1.079 .      S
C492  H432  1.070 1_565  S
N123  Zn32  2.173 1_565  S
C494  S62   1.797 .      S
N124  Zn46  2.153 1_655  S
C496  H433  1.071 .      S
S62   O186  1.713 .      S
O186  H434  0.990 1_565  S
H432  C492  1.070 1_545  S
H434  O186  0.990 1_545  S
C497  C498  1.486 1_545  S
C497  H435  1.108 .      S
C497  H436  1.104 .      S
C497  H437  1.108 .      S
C498  C497  1.486 1_565  S
C499  H438  1.081 .      S
C500  H439  1.074 .      S
C502  S63   1.766 .      S
N126  Zn32  2.104 1_565  S
C504  H440  1.080 .      S
S63   O189  1.707 .      S
O189  H441  0.990 1_565  S
H441  O189  0.990 1_545  S
C505  C506  1.488 .      S
C505  H442  1.109 .      S
C505  H443  1.109 1_655  S
C505  H444  1.108 .      S
C507  H445  1.081 .      S
C508  H446  1.063 .      S
C510  S64   1.765 .      S
C512  H447  1.078 .      S
S64   O192  1.712 .      S
O192  H448  0.990 .      S
H443  C505  1.109 1_455  S
C513  C514  1.479 .      S
C513  H449  1.107 1_545  S
C513  H450  1.104 .      S
C513  H451  1.107 1_545  S
C515  H452  1.081 .      S
C516  H453  1.072 1_455  S
N129  Zn33  2.136 1_455  S
C518  S65   1.789 .      S
C520  H454  1.077 .      S
S65   O195  1.709 1_455  S
O195  S65   1.709 1_655  S
O195  H455  0.990 1_655  S
H449  C513  1.107 1_565  S
H451  C513  1.107 1_565  S
H453  C516  1.072 1_655  S
H455  O195  0.990 1_455  S
C521  C522  1.482 .      S
C521  H456  1.108 .      S
C521  H457  1.106 .      S
C521  H458  1.108 .      S
C523  H459  1.066 .      S
C524  H460  1.047 .      S
C526  S66   1.792 .      S
C528  H461  1.056 .      S
S66   O198  1.715 .      S
O198  H462  0.989 .      S
C529  C530  1.488 .      S
C529  H463  1.109 .      S
C529  H464  1.109 .      S
C529  H465  1.109 .      S
C531  H466  1.073 .      S
C532  H467  1.080 1_565  S
C534  S67   1.788 .      S
C536  H468  1.064 .      S
S67   O201  1.702 .      S
O201  H469  0.989 .      S
H467  C532  1.080 1_545  S
C537  C538  1.490 1_545  S
C537  H470  1.109 .      S
C537  H471  1.108 .      S
C537  H472  1.109 .      S
C538  C537  1.490 1_565  S
C539  H473  1.081 1_554  S
C540  H474  1.081 .      S
N135  Zn57  2.226 1_554  S
C542  S68   1.792 .      S
C544  H475  1.075 .      S
S68   O204  1.712 .      S
O204  H476  0.989 .      S
H473  C539  1.081 1_556  S
C545  C546  1.487 .      S
C545  H477  1.109 .      S
C545  H478  1.108 .      S
C545  H479  1.109 .      S
C547  H480  1.081 .      S
C548  H481  1.079 .      S
C550  S69   1.751 .      S
C552  H482  1.071 .      S
S69   O207  1.704 .      S
O207  H483  0.987 .      S
C553  C554  1.489 .      S
C553  H484  1.108 .      S
C553  H485  1.109 .      S
C553  H486  1.108 .      S
C555  H487  1.065 .      S
C556  H488  1.078 .      S
C558  S70   1.794 .      S
C560  H489  1.080 .      S
S70   O210  1.710 .      S
O210  H490  0.990 .      S
C561  C562  1.489 .      S
C561  H491  1.109 .      S
C561  H492  1.107 .      S
C561  H493  1.109 .      S
C563  H494  1.081 .      S
C564  H495  1.074 .      S
C566  S71   1.799 .      S
C568  H496  1.074 .      S
S71   O213  1.711 1_545  S
O213  S71   1.711 1_565  S
O213  H497  0.989 .      S
C569  C570  1.485 .      S
C569  H498  1.108 .      S
C569  H499  1.107 .      S
C569  H500  1.109 .      S
C571  H501  1.081 .      S
C572  H502  1.060 .      S
N143  Zn37  2.060 1_565  S
C574  S72   1.760 .      S
C576  H503  1.064 .      S
S72   O216  1.718 .      S
O216  H504  0.989 .      S
C577  C578  1.488 .      S
C577  H505  1.109 .      S
C577  H506  1.107 .      S
C577  H507  1.109 .      S
C579  H508  1.081 .      S
C580  H509  1.078 .      S
C582  S73   1.805 .      S
C584  H510  1.071 .      S
S73   O219  1.698 .      S
O219  H511  0.988 .      S
C585  C586  1.471 .      S
C585  H512  1.098 .      S
C585  H513  1.107 .      S
C585  H514  1.104 .      S
C587  H515  1.079 .      S
C588  H516  1.070 .      S
C590  S74   1.749 .      S
C592  H517  1.049 .      S
S74   O222  1.703 .      S
O222  H518  0.988 .      S
C593  C594  1.464 .      S
C593  H519  1.108 .      S
C593  H520  1.101 .      S
C593  H521  1.107 .      S
C595  H522  1.081 .      S
C596  H523  1.057 .      S
C598  S75   1.782 .      S
N150  Zn40  2.133 1_465  S
C600  H524  1.076 .      S
S75   O225  1.709 1_465  S
O225  S75   1.709 1_645  S
O225  H525  0.990 .      S
C601  C602  1.487 1_545  S
C601  H526  1.107 .      S
C601  H527  1.109 .      S
C601  H528  1.109 1_545  S
C602  C601  1.487 1_565  S
C603  H529  1.081 .      S
C604  H530  1.069 .      S
C606  S76   1.769 .      S
N152  Zn40  2.094 1_565  S
C608  H531  1.066 1_565  S
S76   O228  1.703 .      S
O228  H532  0.990 .      S
H528  C601  1.109 1_565  S
H531  C608  1.066 1_545  S
C609  C610  1.468 .      S
C609  H533  1.108 .      S
C609  H534  1.105 .      S
C609  H535  1.107 .      S
C611  H536  1.080 .      S
C612  H537  1.073 1_655  S
C614  S77   1.806 .      S
N154  Zn41  2.067 1_565  S
C616  H538  1.081 .      S
S77   O231  1.710 .      S
O231  H539  0.990 .      S
H537  C612  1.073 1_455  S
C617  C618  1.488 .      S
C617  H540  1.109 .      S
C617  H541  1.109 .      S
C617  H542  1.109 .      S
C619  H543  1.081 .      S
C620  H544  1.077 .      S
C622  S78   1.794 .      S
C624  H545  1.075 .      S
S78   O234  1.711 1_545  S
O234  S78   1.711 1_565  S
O234  H546  0.990 .      S
C625  C626  1.491 .      S
C625  H547  1.109 .      S
C625  H548  1.108 .      S
C625  H549  1.109 .      S
C627  H550  1.081 .      S
C628  H551  1.066 .      S
C630  S79   1.801 .      S
C632  H552  1.071 .      S
S79   O237  1.717 .      S
O237  H553  0.986 .      S
C633  C634  1.484 1_655  S
C633  H554  1.109 .      S
C633  H555  1.108 .      S
C633  H556  1.109 .      S
C634  C633  1.484 1_455  S
C635  H557  1.081 1_455  S
C636  H558  1.066 .      S
C638  S80   1.743 .      S
C640  H559  1.078 .      S
S80   O240  1.699 .      S
O240  H560  0.983 .      S
H557  C635  1.081 1_655  S
C641  C642  1.498 .      S
C641  H561  1.107 .      S
C641  H562  1.108 .      S
C641  H563  1.106 .      S
C643  H564  1.080 .      S
C644  H565  1.067 .      S
C646  S81   1.775 .      S
N162  Zn42  2.184 1_565  S
C648  H566  1.055 .      S
S81   O243  1.674 .      S
O243  H567  0.991 .      S
C649  C650  1.482 .      S
C649  H568  1.102 .      S
C649  H569  1.106 .      S
C649  H570  1.109 1_556  S
C651  H571  1.077 .      S
C652  H572  1.075 .      S
C654  S82   1.807 .      S
C656  H573  1.069 .      S
S82   O246  1.716 .      S
O246  H574  0.990 .      S
H570  C649  1.109 1_554  S
C657  C658  1.486 .      S
C657  H575  1.109 .      S
C657  H576  1.107 .      S
C657  H577  1.109 .      S
C659  H578  1.081 .      S
C660  H579  1.078 .      S
C662  S83   1.758 1_556  S
C664  H580  1.078 .      S
S83   C662  1.758 1_554  S
S83   O249  1.678 .      S
O249  H581  0.989 .      S
C665  C666  1.463 .      S
C665  H582  1.108 .      S
C665  H583  1.098 .      S
C665  H584  1.107 .      S
C667  H585  1.081 .      S
C668  H586  1.076 1_554  S
N167  Zn43  2.004 1_554  S
C670  S84   1.755 .      S
C672  H587  1.077 .      S
S84   O252  1.698 .      S
O252  H588  0.987 .      S
H586  C668  1.076 1_556  S
C673  C674  1.443 .      S
C673  H589  1.094 .      S
C673  H590  1.090 .      S
C673  H591  1.080 .      S
C675  H592  1.057 .      S
C676  H593  1.047 .      S
C678  S85   1.766 .      S
C680  H594  1.050 1_655  S
S85   O255  1.714 .      S
O255  H595  0.988 .      S
H594  C680  1.050 1_455  S
C681  C682  1.482 .      S
C681  H596  1.106 .      S
C681  H597  1.105 .      S
C681  H598  1.109 .      S
C683  H599  1.067 .      S
C684  H600  1.071 .      S
C686  S86   1.690 .      S
C688  H601  1.075 .      S
S86   O258  1.679 .      S
O258  H602  0.985 .      S
C689  C690  1.488 .      S
C689  H603  1.109 .      S
C689  H604  1.109 .      S
C689  H605  1.109 .      S
C691  H606  1.081 .      S
C692  H607  1.077 .      S
C694  S87   1.808 .      S
C696  H608  1.081 .      S
S87   O261  1.714 .      S
O261  H609  0.990 .      S
C697  C698  1.486 .      S
C697  H610  1.109 .      S
C697  H611  1.107 .      S
C697  H612  1.107 .      S
C699  H613  1.081 .      S
C700  H614  1.034 .      S
C702  S88   1.804 .      S
C704  H615  1.072 .      S
S88   O264  1.714 .      S
O264  H616  0.990 .      S
C705  C706  1.482 .      S
C705  H617  1.105 .      S
C705  H618  1.106 .      S
C705  H619  1.105 .      S
C707  H620  1.076 .      S
C708  H621  1.063 .      S
C710  S89   1.823 .      S
C712  H622  1.074 .      S
S89   O267  1.701 .      S
O267  H623  0.989 .      S
C713  C714  1.488 .      S
C713  H624  1.109 .      S
C713  H625  1.109 .      S
C713  H626  1.109 .      S
C715  H627  1.081 1_655  S
C716  H628  1.064 .      S
C718  S90   1.764 .      S
C720  H629  1.071 .      S
S90   O270  1.705 .      S
O270  H630  0.989 .      S
H627  C715  1.081 1_455  S
C721  C722  1.488 1_545  S
C721  H631  1.109 .      S
C721  H632  1.109 .      S
C721  H633  1.109 .      S
C722  C721  1.488 1_565  S
C723  H634  1.081 1_565  S
C724  H635  1.078 .      S
C726  S91   1.757 .      S
C728  H636  1.077 .      S
S91   O273  1.694 .      S
O273  H637  0.989 .      S
H634  C723  1.081 1_545  S
C729  C730  1.475 .      S
C729  H638  1.102 .      S
C729  H639  1.101 .      S
C729  H640  1.102 .      S
C731  H641  1.077 .      S
C732  H642  1.069 .      S
C734  S92   1.791 .      S
C736  H643  1.069 .      S
S92   O276  1.693 .      S
O276  H644  0.984 .      S
C737  C738  1.453 .      S
C737  H645  1.107 .      S
C737  H646  1.096 .      S
C737  H647  1.105 .      S
C739  H648  1.080 .      S
C740  H649  1.060 .      S
C742  S93   1.757 .      S
C744  H650  1.067 .      S
S93   O279  1.706 .      S
O279  H651  0.986 .      S
C745  C746  1.493 .      S
C745  H652  1.107 .      S
C745  H653  1.108 .      S
C745  H654  1.108 .      S
C747  H655  1.081 .      S
C748  H656  1.060 .      S
C750  S94   1.710 .      S
C752  H657  1.080 .      S
S94   O282  1.662 .      S
O282  H658  0.991 .      S
C753  C754  1.467 .      S
C753  H659  1.105 .      S
C753  H660  1.097 .      S
C753  H661  1.108 .      S
C755  H662  1.080 .      S
C756  H663  1.053 .      S
C758  S95   1.711 .      S
C760  H664  1.075 .      S
S95   O285  1.689 .      S
O285  H665  0.976 .      S
C761  C762  1.488 .      S
C761  H666  1.109 .      S
C761  H667  1.109 .      S
C761  H668  1.109 1_545  S
C763  H669  1.081 .      S
C764  H670  1.073 .      S
C766  S96   1.809 .      S
C768  H671  1.075 .      S
S96   O288  1.704 .      S
O288  H672  0.990 .      S
H668  C761  1.109 1_565  S
C769  C770  1.485 .      S
C769  H673  1.108 .      S
C769  H674  1.106 .      S
C769  H675  1.108 .      S
C771  H676  1.076 .      S
C772  H677  1.054 .      S
C774  S97   1.821 .      S
C776  H678  1.053 .      S
S97   O291  1.696 .      S
O291  H679  0.990 .      S
C777  C778  1.489 .      S
C777  H680  1.109 .      S
C777  H681  1.108 .      S
C777  H682  1.109 .      S
C779  H683  1.068 .      S
C780  H684  1.070 .      S
C782  S98   1.743 .      S
C784  H685  1.079 .      S
S98   O294  1.706 .      S
O294  H686  0.989 .      S
C785  C786  1.488 .      S
C785  H687  1.108 .      S
C785  H688  1.109 .      S
C785  H689  1.109 .      S
C787  H690  1.081 .      S
C788  H691  1.069 .      S
C790  S99   1.730 .      S
C792  H692  1.071 .      S
S99   O297  1.710 .      S
O297  H693  0.990 .      S
C793  C794  1.483 .      S
C793  H694  1.104 .      S
C793  H695  1.105 .      S
C793  H696  1.108 .      S
C795  H697  1.073 .      S
C796  H698  1.062 .      S
C798  S100  1.786 .      S
C800  H699  1.066 .      S
S100  O300  1.694 .      S
O300  H700  0.985 .      S
C801  C802  1.485 .      S
C801  H701  1.097 .      S
C801  H702  1.091 .      S
C801  H703  1.104 .      S
C803  H704  1.051 .      S
C804  H705  1.056 .      S
C806  S101  1.775 .      S
C808  H706  1.051 .      S
S101  O303  1.713 1_455  S
O303  S101  1.713 1_655  S
O303  H707  0.990 .      S
C809  C810  1.484 .      S
C809  H708  1.109 .      S
C809  H709  1.107 .      S
C809  H710  1.109 .      S
C811  H711  1.080 .      S
C812  H712  1.069 .      S
C814  S102  1.798 .      S
C816  H713  1.080 .      S
S102  O306  1.716 1_545  S
O306  S102  1.716 1_565  S
O306  H714  0.990 .      S
C817  C818  1.486 .      S
C817  H715  1.109 .      S
C817  H716  1.107 .      S
C817  H717  1.109 .      S
C819  H718  1.075 .      S
C820  H719  1.073 .      S
C822  S103  1.701 .      S
C824  H720  1.081 .      S
S103  O309  1.698 .      S
O309  H721  0.990 .      S
C825  C826  1.479 .      S
C825  H722  1.107 .      S
C825  H723  1.101 1_455  S
C825  H724  1.108 1_455  S
C827  H725  1.081 .      S
C828  H726  1.069 .      S
C830  S104  1.718 .      S
C832  H727  1.063 .      S
S104  O312  1.707 .      S
O312  H728  0.975 .      S
H723  C825  1.101 1_655  S
H724  C825  1.108 1_655  S
C833  C834  1.488 .      S
C833  H729  1.109 .      S
C833  H730  1.107 .      S
C833  H731  1.109 .      S
C835  H732  1.081 .      S
C836  H733  1.065 1_455  S
N209  Zn59  2.105 1_455  S
C838  S105  1.770 .      S
C840  H734  1.057 .      S
S105  O315  1.709 1_455  S
O315  S105  1.709 1_655  S
O315  H735  0.990 .      S
H733  C836  1.065 1_655  S
C841  C842  1.483 .      S
C841  H736  1.109 .      S
C841  H737  1.102 .      S
C841  H738  1.108 .      S
C843  H739  1.081 .      S
C844  H740  1.059 .      S
C846  S106  1.798 .      S
C848  H741  1.072 .      S
S106  O318  1.699 .      S
O318  H742  0.981 .      S
C849  C850  1.489 1_655  S
C849  H743  1.109 1_655  S
C849  H744  1.109 .      S
C849  H745  1.109 .      S
C850  C849  1.489 1_455  S
C851  H746  1.081 .      S
C852  H747  1.076 .      S
C854  S107  1.749 .      S
N214  Zn53  2.151 1_455  S
C856  H748  1.071 .      S
S107  O321  1.700 .      S
O321  H749  0.989 .      S
H743  C849  1.109 1_455  S
C857  C858  1.488 .      S
C857  H750  1.109 .      S
C857  H751  1.109 .      S
C857  H752  1.109 .      S
C859  H753  1.081 .      S
C860  H754  1.073 .      S
C862  S108  1.801 1_655  S
C864  H755  1.072 .      S
S108  C862  1.801 1_455  S
S108  O324  1.713 .      S
O324  H756  0.990 .      S
C865  C866  1.486 .      S
C865  H757  1.107 .      S
C865  H758  1.109 .      S
C865  H759  1.108 .      S
C867  H760  1.081 .      S
C868  H761  1.079 .      S
C870  S109  1.803 .      S
C872  H762  1.071 .      S
S109  O327  1.691 .      S
O327  H763  0.980 .      S
C873  C874  1.488 1_655  S
C873  H764  1.108 .      S
C873  H765  1.109 .      S
C873  H766  1.109 .      S
C874  C873  1.488 1_455  S
C875  H767  1.081 .      S
C876  H768  1.078 .      S
C878  S110  1.752 .      S
C880  H769  1.075 .      S
S110  O330  1.714 .      S
O330  H770  0.990 .      S
C881  C882  1.488 .      S
C881  H771  1.108 1_455  S
C881  H772  1.109 .      S
C881  H773  1.109 1_455  S
C883  H774  1.080 .      S
C884  H775  1.067 .      S
C886  S111  1.811 .      S
C888  H776  1.080 .      S
S111  O333  1.702 .      S
O333  H777  0.990 .      S
H771  C881  1.108 1_655  S
H773  C881  1.109 1_655  S
C889  C890  1.485 .      S
C889  H778  1.109 .      S
C889  H779  1.106 .      S
C889  H780  1.109 .      S
C891  H781  1.080 .      S
C892  H782  1.076 .      S
C894  S112  1.807 .      S
C896  H783  1.079 .      S
S112  O336  1.707 .      S
O336  H784  0.990 .      S
C897  C898  1.487 .      S
C897  H785  1.109 .      S
C897  H786  1.104 .      S
C897  H787  1.109 .      S
C899  H788  1.081 .      S
C900  H789  1.079 .      S
C902  S113  1.744 .      S
C904  H790  1.071 .      S
S113  O339  1.695 .      S
O339  H791  0.983 1_554  S
H791  O339  0.983 1_556  S
C905  C906  1.486 .      S
C905  H792  1.109 1_655  S
C905  H793  1.107 .      S
C905  H794  1.108 .      S
C907  H795  1.081 .      S
C908  H796  1.075 .      S
C910  S114  1.804 .      S
C912  H797  1.074 .      S
S114  O342  1.714 .      S
O342  H798  0.990 .      S
H792  C905  1.109 1_455  S
C913  C914  1.487 .      S
C913  H799  1.109 .      S
C913  H800  1.107 .      S
C913  H801  1.108 .      S
C915  H802  1.081 .      S
C916  H803  1.058 .      S
C918  S115  1.793 .      S
C920  H804  1.072 .      S
S115  O345  1.705 .      S
O345  H805  0.974 .      S
C921  C922  1.489 .      S
C921  H806  1.109 .      S
C921  H807  1.108 .      S
C921  H808  1.108 .      S
C923  H809  1.078 .      S
C924  H810  1.079 .      S
C926  S116  1.635 .      S
C928  H811  1.077 .      S
S116  O348  1.686 .      S
O348  H812  0.978 .      S
C929  C930  1.488 .      S
C929  H813  1.109 .      S
C929  H814  1.108 .      S
C929  H815  1.108 .      S
C931  H816  1.081 .      S
C932  H817  1.078 .      S
N233  Zn58  2.079 1_565  S
C934  S117  1.798 .      S
C936  H818  1.080 .      S
S117  O351  1.708 .      S
O351  H819  0.990 .      S
C937  C938  1.486 .      S
C937  H820  1.106 .      S
C937  H821  1.106 .      S
C937  H822  1.109 .      S
C939  H823  1.081 1_655  S
C940  H824  1.069 1_655  S
C942  S118  1.781 .      S
C944  H825  1.068 .      S
S118  O354  1.707 .      S
O354  H826  0.981 .      S
H823  C939  1.081 1_455  S
H824  C940  1.069 1_455  S
C945  C946  1.488 .      S
C945  H827  1.108 .      S
C945  H828  1.107 .      S
C945  H829  1.106 .      S
C947  H830  1.077 .      S
C948  H831  1.073 .      S
C950  S119  1.777 .      S
C952  H832  1.066 .      S
S119  O357  1.709 .      S
O357  H833  0.989 .      S
C953  C954  1.476 .      S
C953  H834  1.108 .      S
C953  H835  1.108 .      S
C953  H836  1.109 .      S
C955  H837  1.081 .      S
C956  H838  1.080 .      S
C958  S120  1.753 .      S
C960  H839  1.073 .      S
S120  O360  1.704 .      S
O360  H840  0.990 .      S
C2    C3    1.383 .      A
C2    C8    1.376 .      A
C3    C4    1.386 .      A
C4    C5    1.371 .      A
C5    N1    1.345 .      A
C5    C7    1.358 .      A
N1    C6    1.387 .      A
C6    N2    1.395 .      A
N2    C7    1.346 .      A
C7    C8    1.361 .      A
C10   C11   1.382 .      A
C10   C16   1.389 .      A
C11   C12   1.379 .      A
C12   C13   1.368 .      A
C13   N3    1.349 .      A
C13   C15   1.359 .      A
N3    C14   1.371 .      A
C14   N4    1.392 .      A
N4    C15   1.345 .      A
C15   C16   1.375 .      A
C18   C19   1.382 .      A
C18   C24   1.384 .      A
C19   C20   1.382 .      A
C20   C21   1.373 .      A
C21   N5    1.359 .      A
C21   C23   1.361 .      A
N5    C22   1.379 .      A
C22   N6    1.394 .      A
N6    C23   1.334 .      A
C23   C24   1.372 .      A
C26   C27   1.394 .      A
C26   C32   1.386 .      A
C27   C28   1.384 .      A
C28   C29   1.370 .      A
C29   N7    1.349 .      A
C29   C31   1.383 .      A
N7    C30   1.368 .      A
C30   N8    1.363 .      A
N8    C31   1.353 .      A
C31   C32   1.370 .      A
C34   C35   1.383 .      A
C34   C40   1.383 .      A
C35   C36   1.380 .      A
C36   C37   1.377 .      A
C37   N9    1.348 .      A
C37   C39   1.368 .      A
N9    C38   1.383 .      A
C38   N10   1.383 .      A
N10   C39   1.352 .      A
C39   C40   1.373 .      A
C42   C43   1.392 .      A
C42   C48   1.388 .      A
C43   C44   1.385 .      A
C44   C45   1.373 .      A
C45   N11   1.354 .      A
C45   C47   1.378 .      A
N11   C46   1.394 .      A
C46   N12   1.387 .      A
N12   C47   1.355 .      A
C47   C48   1.374 .      A
C50   C51   1.382 .      A
C50   C56   1.390 .      A
C51   C52   1.374 .      A
C52   C53   1.362 .      A
C53   N13   1.337 .      A
C53   C55   1.361 .      A
N13   C54   1.383 .      A
C54   N14   1.387 .      A
N14   C55   1.353 .      A
C55   C56   1.373 .      A
C58   C59   1.377 .      A
C58   C64   1.378 .      A
C59   C60   1.378 .      A
C60   C61   1.376 .      A
C61   N15   1.360 .      A
C61   C63   1.362 .      A
N15   C62   1.398 .      A
C62   N16   1.379 .      A
N16   C63   1.345 .      A
C63   C64   1.375 .      A
C66   C67   1.348 .      A
C66   C72   1.338 .      A
C67   C68   1.379 .      A
C68   C69   1.357 .      A
C69   N17   1.333 .      A
C69   C71   1.333 .      A
N17   C70   1.394 .      A
C70   N18   1.386 .      A
N18   C71   1.322 .      A
C71   C72   1.332 .      A
C74   C75   1.392 .      A
C74   C80   1.387 .      A
C75   C76   1.387 .      A
C76   C77   1.374 .      A
C77   N19   1.359 .      A
C77   C79   1.386 .      A
N19   C78   1.392 .      A
C78   N20   1.377 .      A
N20   C79   1.346 .      A
C79   C80   1.371 .      A
C82   C83   1.387 .      A
C82   C88   1.379 .      A
C83   C84   1.384 .      A
C84   C85   1.369 .      A
C85   N21   1.351 .      A
C85   C87   1.362 .      A
N21   C86   1.392 .      A
C86   N22   1.376 .      A
N22   C87   1.347 .      A
C87   C88   1.372 .      A
C90   C91   1.376 .      A
C90   C96   1.388 .      A
C91   C92   1.372 .      A
C92   C93   1.370 .      A
C93   N23   1.341 .      A
C93   C95   1.368 .      A
N23   C94   1.378 .      A
C94   N24   1.376 .      A
N24   C95   1.375 .      A
C95   C96   1.387 .      A
C98   C99   1.381 .      A
C98   C104  1.383 .      A
C99   C100  1.375 .      A
C100  C101  1.380 .      A
C101  N25   1.356 .      A
C101  C103  1.361 .      A
N25   C102  1.394 .      A
C102  N26   1.380 .      A
N26   C103  1.349 .      A
C103  C104  1.365 .      A
C106  C107  1.388 .      A
C106  C112  1.387 .      A
C107  C108  1.381 .      A
C108  C109  1.370 .      A
C109  N27   1.344 .      A
C109  C111  1.367 .      A
N27   C110  1.375 1_455  A
C110  N27   1.375 1_655  A
C110  N28   1.395 .      A
N28   C111  1.347 1_655  A
C111  N28   1.347 1_455  A
C111  C112  1.372 .      A
C114  C115  1.387 .      A
C114  C120  1.385 .      A
C115  C116  1.382 .      A
C116  C117  1.374 .      A
C117  N29   1.346 .      A
C117  C119  1.376 .      A
N29   C118  1.367 .      A
C118  N30   1.386 .      A
N30   C119  1.363 .      A
C119  C120  1.380 .      A
C122  C123  1.380 .      A
C122  C128  1.393 .      A
C123  C124  1.374 .      A
C124  C125  1.365 .      A
C125  N31   1.340 .      A
C125  C127  1.367 .      A
N31   C126  1.404 .      A
C126  N32   1.406 .      A
N32   C127  1.350 .      A
C127  C128  1.365 .      A
C130  C131  1.376 1_554  A
C130  C136  1.389 .      A
C131  C130  1.376 1_556  A
C131  C132  1.365 .      A
C132  C133  1.356 .      A
C133  N33   1.331 .      A
C133  C135  1.345 1_556  A
N33   C134  1.399 1_556  A
C134  N33   1.399 1_554  A
C134  N34   1.376 .      A
N34   C135  1.344 .      A
C135  C133  1.345 1_554  A
C135  C136  1.363 .      A
C138  C139  1.387 1_655  A
C138  C144  1.385 1_655  A
C139  C138  1.387 1_455  A
C139  C140  1.382 .      A
C140  C141  1.374 .      A
C141  N35   1.351 .      A
C141  C143  1.369 .      A
N35   C142  1.376 .      A
C142  N36   1.390 .      A
N36   C143  1.355 .      A
C143  C144  1.376 .      A
C144  C138  1.385 1_455  A
C146  C147  1.388 .      A
C146  C152  1.388 .      A
C147  C148  1.385 .      A
C148  C149  1.367 .      A
C149  N37   1.355 .      A
C149  C151  1.367 .      A
N37   C150  1.356 .      A
C150  N38   1.379 .      A
N38   C151  1.341 .      A
C151  C152  1.373 .      A
C154  C155  1.378 .      A
C154  C160  1.376 .      A
C155  C156  1.380 .      A
C156  C157  1.359 .      A
C157  N39   1.362 .      A
C157  C159  1.359 .      A
N39   C158  1.403 .      A
C158  N40   1.373 .      A
N40   C159  1.339 .      A
C159  C160  1.372 .      A
C162  C163  1.391 .      A
C162  C168  1.386 .      A
C163  C164  1.385 .      A
C164  C165  1.372 .      A
C165  N41   1.351 .      A
C165  C167  1.369 .      A
N41   C166  1.392 .      A
C166  N42   1.388 .      A
N42   C167  1.346 .      A
C167  C168  1.377 .      A
C170  C171  1.386 .      A
C170  C176  1.388 .      A
C171  C172  1.384 1_545  A
C172  C171  1.384 1_565  A
C172  C173  1.374 .      A
C173  N43   1.347 .      A
C173  C175  1.362 1_565  A
N43   C174  1.383 .      A
C174  N44   1.398 1_565  A
N44   C174  1.398 1_545  A
N44   C175  1.347 .      A
C175  C173  1.362 1_545  A
C175  C176  1.371 .      A
C178  C179  1.381 .      A
C178  C184  1.385 .      A
C179  C180  1.381 .      A
C180  C181  1.367 .      A
C181  N45   1.354 .      A
C181  C183  1.352 .      A
N45   C182  1.386 .      A
C182  N46   1.385 .      A
N46   C183  1.340 .      A
C183  C184  1.375 .      A
C186  C187  1.385 .      A
C186  C192  1.382 .      A
C187  C188  1.384 .      A
C188  C189  1.373 .      A
C189  N47   1.346 .      A
C189  C191  1.360 .      A
N47   C190  1.400 .      A
C190  N48   1.382 .      A
N48   C191  1.344 .      A
C191  C192  1.371 .      A
C194  C195  1.379 .      A
C194  C200  1.387 .      A
C195  C196  1.378 .      A
C196  C197  1.363 .      A
C197  N49   1.349 1_455  A
C197  C199  1.365 .      A
N49   C197  1.349 1_655  A
N49   C198  1.371 1_655  A
C198  N49   1.371 1_455  A
C198  N50   1.373 .      A
N50   C199  1.349 .      A
C199  C200  1.378 .      A
C202  C203  1.373 .      A
C202  C208  1.362 .      A
C203  C204  1.366 .      A
C204  C205  1.357 .      A
C205  N51   1.336 .      A
C205  C207  1.349 .      A
N51   C206  1.381 .      A
C206  N52   1.408 .      A
N52   C207  1.333 .      A
C207  C208  1.359 .      A
C210  C211  1.392 .      A
C210  C216  1.388 .      A
C211  C212  1.384 .      A
C212  C213  1.375 .      A
C213  N53   1.349 .      A
C213  C215  1.356 .      A
N53   C214  1.378 .      A
C214  N54   1.390 .      A
N54   C215  1.347 .      A
C215  C216  1.372 .      A
C218  C219  1.383 .      A
C218  C224  1.387 .      A
C219  C220  1.376 .      A
C220  C221  1.371 .      A
C221  N55   1.343 .      A
C221  C223  1.373 .      A
N55   C222  1.379 .      A
C222  N56   1.386 .      A
N56   C223  1.369 .      A
C223  C224  1.382 .      A
C226  C227  1.383 .      A
C226  C232  1.381 .      A
C227  C228  1.383 .      A
C228  C229  1.382 .      A
C229  N57   1.362 .      A
C229  C231  1.370 .      A
N57   C230  1.388 .      A
C230  N58   1.394 .      A
N58   C231  1.345 .      A
C231  C232  1.376 .      A
C234  C235  1.388 .      A
C234  C240  1.385 .      A
C235  C236  1.382 .      A
C236  C237  1.372 .      A
C237  N59   1.349 .      A
C237  C239  1.371 .      A
N59   C238  1.385 .      A
C238  N60   1.375 .      A
N60   C239  1.353 .      A
C239  C240  1.371 .      A
C242  C243  1.381 .      A
C242  C248  1.377 .      A
C243  C244  1.383 .      A
C244  C245  1.379 .      A
C245  N61   1.361 .      A
C245  C247  1.354 .      A
N61   C246  1.381 .      A
C246  N62   1.375 .      A
N62   C247  1.338 .      A
C247  C248  1.374 .      A
C250  C251  1.392 .      A
C250  C256  1.386 .      A
C251  C252  1.386 .      A
C252  C253  1.372 .      A
C253  N63   1.347 .      A
C253  C255  1.356 .      A
N63   C254  1.374 .      A
C254  N64   1.394 .      A
N64   C255  1.343 .      A
C255  C256  1.373 .      A
C258  C259  1.382 .      A
C258  C264  1.387 .      A
C259  C260  1.370 .      A
C260  C261  1.363 .      A
C261  N65   1.338 .      A
C261  C263  1.369 .      A
N65   C262  1.377 .      A
C262  N66   1.380 .      A
N66   C263  1.347 .      A
C263  C264  1.364 .      A
C266  C267  1.387 .      A
C266  C272  1.366 .      A
C267  C268  1.383 .      A
C268  C269  1.369 .      A
C269  N67   1.356 .      A
C269  C271  1.375 .      A
N67   C270  1.353 .      A
C270  N68   1.359 .      A
N68   C271  1.334 .      A
C271  C272  1.364 .      A
C274  C275  1.386 .      A
C274  C280  1.387 1_655  A
C275  C276  1.380 1_655  A
C276  C275  1.380 1_455  A
C276  C277  1.368 .      A
C277  N69   1.334 .      A
C277  C279  1.359 .      A
N69   C278  1.371 .      A
C278  N70   1.381 .      A
N70   C279  1.357 .      A
C279  C280  1.372 .      A
C280  C274  1.387 1_455  A
C282  C283  1.385 .      A
C282  C288  1.384 .      A
C283  C284  1.382 .      A
C284  C285  1.371 .      A
C285  N71   1.357 .      A
C285  C287  1.372 .      A
N71   C286  1.393 .      A
C286  N72   1.380 .      A
N72   C287  1.345 .      A
C287  C288  1.371 .      A
C290  C291  1.382 .      A
C290  C296  1.383 .      A
C291  C292  1.380 .      A
C292  C293  1.370 .      A
C293  N73   1.348 .      A
C293  C295  1.356 .      A
N73   C294  1.395 .      A
C294  N74   1.382 .      A
N74   C295  1.351 .      A
C295  C296  1.373 .      A
C298  C299  1.390 .      A
C298  C304  1.378 .      A
C299  C300  1.381 .      A
C300  C301  1.366 .      A
C301  N75   1.343 .      A
C301  C303  1.365 .      A
N75   C302  1.417 .      A
C302  N76   1.407 .      A
N76   C303  1.343 .      A
C303  C304  1.362 .      A
C306  C307  1.382 .      A
C306  C312  1.382 .      A
C307  C308  1.381 .      A
C308  C309  1.372 .      A
C309  N77   1.353 .      A
C309  C311  1.355 .      A
N77   C310  1.395 .      A
C310  N78   1.389 .      A
N78   C311  1.341 .      A
C311  C312  1.370 .      A
C314  C315  1.388 1_556  A
C314  C320  1.384 .      A
C315  C314  1.388 1_554  A
C315  C316  1.383 1_554  A
C316  C315  1.383 1_556  A
C316  C317  1.374 .      A
C317  N79   1.353 .      A
C317  C319  1.367 .      A
N79   C318  1.382 .      A
C318  N80   1.387 .      A
N80   C319  1.344 .      A
C319  C320  1.373 .      A
C322  C323  1.377 .      A
C322  C328  1.378 .      A
C323  C324  1.380 .      A
C324  C325  1.379 .      A
C325  N81   1.369 .      A
C325  C327  1.362 .      A
N81   C326  1.387 .      A
C326  N82   1.399 .      A
N82   C327  1.337 .      A
C327  C328  1.368 .      A
C330  C331  1.380 .      A
C330  C336  1.379 .      A
C331  C332  1.378 .      A
C332  C333  1.386 .      A
C333  N83   1.362 .      A
C333  C335  1.358 .      A
N83   C334  1.399 .      A
C334  N84   1.403 .      A
N84   C335  1.345 .      A
C335  C336  1.368 .      A
C338  C339  1.383 .      A
C338  C344  1.384 .      A
C339  C340  1.380 .      A
C340  C341  1.361 .      A
C341  N85   1.338 .      A
C341  C343  1.369 .      A
N85   C342  1.385 .      A
C342  N86   1.394 .      A
N86   C343  1.360 .      A
C343  C344  1.373 .      A
C346  C347  1.387 1_565  A
C346  C352  1.383 .      A
C347  C346  1.387 1_545  A
C347  C348  1.384 .      A
C348  C349  1.371 .      A
C349  N87   1.350 .      A
C349  C351  1.363 1_545  A
N87   C350  1.395 .      A
C350  N88   1.389 1_545  A
N88   C350  1.389 1_565  A
N88   C351  1.347 .      A
C351  C349  1.363 1_565  A
C351  C352  1.371 .      A
C354  C355  1.369 .      A
C354  C360  1.377 .      A
C355  C356  1.372 .      A
C356  C357  1.357 .      A
C357  N89   1.352 .      A
C357  C359  1.355 .      A
N89   C358  1.397 .      A
C358  N90   1.405 .      A
N90   C359  1.346 .      A
C359  C360  1.367 .      A
C362  C363  1.387 .      A
C362  C368  1.383 .      A
C363  C364  1.384 .      A
C364  C365  1.380 .      A
C365  N91   1.363 .      A
C365  C367  1.373 .      A
N91   C366  1.385 .      A
C366  N92   1.415 .      A
N92   C367  1.342 .      A
C367  C368  1.369 .      A
C370  C371  1.379 1_655  A
C370  C376  1.380 .      A
C371  C370  1.379 1_455  A
C371  C372  1.379 .      A
C372  C373  1.381 .      A
C373  N93   1.359 .      A
C373  C375  1.366 .      A
N93   C374  1.397 .      A
C374  N94   1.375 1_455  A
N94   C374  1.375 1_655  A
N94   C375  1.350 1_655  A
C375  N94   1.350 1_455  A
C375  C376  1.371 1_455  A
C376  C375  1.371 1_655  A
C378  C379  1.383 .      A
C378  C384  1.384 .      A
C379  C380  1.380 .      A
C380  C381  1.373 .      A
C381  N95   1.344 .      A
C381  C383  1.366 .      A
N95   C382  1.383 1_655  A
C382  N95   1.383 1_455  A
C382  N96   1.396 .      A
N96   C383  1.360 1_455  A
C383  N96   1.360 1_655  A
C383  C384  1.379 .      A
C386  C387  1.385 .      A
C386  C392  1.381 .      A
C387  C388  1.382 .      A
C388  C389  1.363 .      A
C389  N97   1.350 .      A
C389  C391  1.363 .      A
N97   C390  1.408 1_545  A
C390  N97   1.408 1_565  A
C390  N98   1.425 1_565  A
N98   C390  1.425 1_545  A
N98   C391  1.342 .      A
C391  C392  1.365 .      A
C394  C395  1.384 .      A
C394  C400  1.389 .      A
C395  C396  1.378 .      A
C396  C397  1.368 .      A
C397  N99   1.344 .      A
C397  C399  1.364 .      A
N99   C398  1.390 .      A
C398  N100  1.415 .      A
N100  C399  1.352 .      A
C399  C400  1.378 .      A
C402  C403  1.378 .      A
C402  C408  1.381 .      A
C403  C404  1.377 .      A
C404  C405  1.374 .      A
C405  N101  1.337 .      A
C405  C407  1.363 .      A
N101  C406  1.390 .      A
C406  N102  1.394 .      A
N102  C407  1.363 .      A
C407  C408  1.372 .      A
C410  C411  1.385 .      A
C410  C416  1.379 .      A
C411  C412  1.388 .      A
C412  C413  1.372 .      A
C413  N103  1.350 .      A
C413  C415  1.368 .      A
N103  C414  1.384 .      A
C414  N104  1.394 .      A
N104  C415  1.342 .      A
C415  C416  1.370 .      A
C418  C419  1.377 .      A
C418  C424  1.383 .      A
C419  C420  1.369 .      A
C420  C421  1.366 .      A
C421  N105  1.342 .      A
C421  C423  1.353 .      A
N105  C422  1.378 .      A
C422  N106  1.386 .      A
N106  C423  1.340 .      A
C423  C424  1.363 .      A
C426  C427  1.378 .      A
C426  C432  1.381 .      A
C427  C428  1.375 1_565  A
C428  C427  1.375 1_545  A
C428  C429  1.374 .      A
C429  N107  1.347 1_455  A
C429  C431  1.365 .      A
N107  C429  1.347 1_655  A
N107  C430  1.398 .      A
C430  N108  1.404 .      A
N108  C431  1.354 1_655  A
C431  N108  1.354 1_455  A
C431  C432  1.370 1_545  A
C432  C431  1.370 1_565  A
C434  C435  1.385 .      A
C434  C440  1.382 .      A
C435  C436  1.382 .      A
C436  C437  1.382 .      A
C437  N109  1.363 .      A
C437  C439  1.369 .      A
N109  C438  1.405 .      A
C438  N110  1.381 .      A
N110  C439  1.346 .      A
C439  C440  1.375 .      A
C442  C443  1.388 .      A
C442  C448  1.388 .      A
C443  C444  1.378 .      A
C444  C445  1.364 .      A
C445  N111  1.330 .      A
C445  C447  1.353 .      A
N111  C446  1.384 .      A
C446  N112  1.379 .      A
N112  C447  1.354 .      A
C447  C448  1.366 .      A
C450  C451  1.387 .      A
C450  C456  1.376 .      A
C451  C452  1.391 .      A
C452  C453  1.371 .      A
C453  N113  1.358 .      A
C453  C455  1.359 .      A
N113  C454  1.382 .      A
C454  N114  1.392 .      A
N114  C455  1.328 .      A
C455  C456  1.368 .      A
C458  C459  1.389 .      A
C458  C464  1.385 .      A
C459  C460  1.384 1_655  A
C460  C459  1.384 1_455  A
C460  C461  1.365 1_455  A
C461  C460  1.365 1_655  A
C461  N115  1.348 .      A
C461  C463  1.361 .      A
N115  C462  1.398 .      A
C462  N116  1.383 .      A
N116  C463  1.345 .      A
C463  C464  1.374 .      A
C466  C467  1.371 .      A
C466  C472  1.395 .      A
C467  C468  1.361 .      A
C468  C469  1.367 .      A
C469  N117  1.337 .      A
C469  C471  1.348 .      A
N117  C470  1.375 .      A
C470  N118  1.394 .      A
N118  C471  1.362 .      A
C471  C472  1.378 .      A
C474  C475  1.387 .      A
C474  C480  1.386 .      A
C475  C476  1.381 .      A
C476  C477  1.372 .      A
C477  N119  1.341 .      A
C477  C479  1.367 .      A
N119  C478  1.402 .      A
C478  N120  1.390 .      A
N120  C479  1.362 .      A
C479  C480  1.378 .      A
C482  C483  1.373 .      A
C482  C488  1.392 .      A
C483  C484  1.374 1_565  A
C484  C483  1.374 1_545  A
C484  C485  1.384 .      A
C485  N121  1.365 .      A
C485  C487  1.355 .      A
N121  C486  1.396 .      A
C486  N122  1.394 .      A
N122  C487  1.343 .      A
C487  C488  1.377 1_545  A
C488  C487  1.377 1_565  A
C490  C491  1.382 1_455  A
C490  C496  1.384 .      A
C491  C490  1.382 1_655  A
C491  C492  1.381 .      A
C492  C493  1.377 .      A
C493  N123  1.355 .      A
C493  C495  1.369 .      A
N123  C494  1.392 .      A
C494  N124  1.398 .      A
N124  C495  1.343 .      A
C495  C496  1.370 1_655  A
C496  C495  1.370 1_455  A
C498  C499  1.383 .      A
C498  C504  1.394 1_565  A
C499  C500  1.376 .      A
C500  C501  1.372 .      A
C501  N125  1.348 .      A
C501  C503  1.360 .      A
N125  C502  1.383 .      A
C502  N126  1.377 .      A
N126  C503  1.355 .      A
C503  C504  1.385 1_565  A
C504  C498  1.394 1_545  A
C504  C503  1.385 1_545  A
C506  C507  1.386 .      A
C506  C512  1.383 1_655  A
C507  C508  1.384 1_565  A
C508  C507  1.384 1_545  A
C508  C509  1.357 .      A
C509  N127  1.350 .      A
C509  C511  1.363 1_645  A
N127  C510  1.383 1_655  A
C510  N127  1.383 1_455  A
C510  N128  1.395 1_545  A
N128  C510  1.395 1_565  A
N128  C511  1.345 .      A
C511  C509  1.363 1_465  A
C511  C512  1.374 .      A
C512  C506  1.383 1_455  A
C514  C515  1.389 .      A
C514  C520  1.377 .      A
C515  C516  1.383 .      A
C516  C517  1.369 .      A
C517  N129  1.351 .      A
C517  C519  1.353 .      A
N129  C518  1.399 .      A
C518  N130  1.388 .      A
N130  C519  1.335 .      A
C519  C520  1.368 .      A
C522  C523  1.363 .      A
C522  C528  1.381 .      A
C523  C524  1.358 .      A
C524  C525  1.349 .      A
C525  N131  1.334 .      A
C525  C527  1.355 .      A
N131  C526  1.405 .      A
C526  N132  1.412 .      A
N132  C527  1.364 .      A
C527  C528  1.390 .      A
C530  C531  1.380 .      A
C530  C536  1.378 .      A
C531  C532  1.382 .      A
C532  C533  1.373 1_565  A
C533  C532  1.373 1_545  A
C533  N133  1.345 .      A
C533  C535  1.351 .      A
N133  C534  1.373 .      A
C534  N134  1.372 .      A
N134  C535  1.349 .      A
C535  C536  1.373 1_545  A
C536  C535  1.373 1_565  A
C538  C539  1.388 .      A
C538  C544  1.394 .      A
C539  C540  1.378 1_554  A
C540  C539  1.378 1_556  A
C540  C541  1.371 1_556  A
C541  C540  1.371 1_554  A
C541  N135  1.346 .      A
C541  C543  1.374 .      A
N135  C542  1.405 .      A
C542  N136  1.409 .      A
N136  C543  1.356 .      A
C543  C544  1.376 .      A
C546  C547  1.388 .      A
C546  C552  1.386 .      A
C547  C548  1.381 .      A
C548  C549  1.374 .      A
C549  N137  1.347 .      A
C549  C551  1.365 .      A
N137  C550  1.381 .      A
C550  N138  1.379 .      A
N138  C551  1.354 .      A
C551  C552  1.373 .      A
C554  C555  1.387 .      A
C554  C560  1.377 .      A
C555  C556  1.388 .      A
C556  C557  1.369 .      A
C557  N139  1.349 .      A
C557  C559  1.357 .      A
N139  C558  1.382 .      A
C558  N140  1.390 .      A
N140  C559  1.343 .      A
C559  C560  1.371 .      A
C562  C563  1.388 .      A
C562  C568  1.381 .      A
C563  C564  1.382 .      A
C564  C565  1.376 .      A
C565  N141  1.351 1_565  A
C565  C567  1.374 .      A
N141  C565  1.351 1_545  A
N141  C566  1.398 .      A
C566  N142  1.402 .      A
N142  C567  1.346 1_545  A
C567  N142  1.346 1_565  A
C567  C568  1.375 .      A
C570  C571  1.382 .      A
C570  C576  1.386 .      A
C571  C572  1.376 .      A
C572  C573  1.373 .      A
C573  N143  1.349 .      A
C573  C575  1.364 .      A
N143  C574  1.370 .      A
C574  N144  1.381 .      A
N144  C575  1.353 .      A
C575  C576  1.372 .      A
C578  C579  1.382 .      A
C578  C584  1.386 .      A
C579  C580  1.381 .      A
C580  C581  1.369 .      A
C581  N145  1.342 .      A
C581  C583  1.361 .      A
N145  C582  1.378 .      A
C582  N146  1.387 .      A
N146  C583  1.343 .      A
C583  C584  1.368 .      A
C586  C587  1.379 .      A
C586  C592  1.347 .      A
C587  C588  1.387 .      A
C588  C589  1.375 .      A
C589  N147  1.351 .      A
C589  C591  1.353 .      A
N147  C590  1.371 .      A
C590  N148  1.368 .      A
N148  C591  1.336 .      A
C591  C592  1.356 .      A
C594  C595  1.371 1_545  A
C594  C600  1.377 .      A
C595  C594  1.371 1_565  A
C595  C596  1.369 .      A
C596  C597  1.377 .      A
C597  N149  1.357 .      A
C597  C599  1.365 .      A
N149  C598  1.399 .      A
C598  N150  1.386 .      A
N150  C599  1.343 .      A
C599  C600  1.369 1_565  A
C600  C599  1.369 1_545  A
C602  C603  1.382 .      A
C602  C608  1.384 .      A
C603  C604  1.377 .      A
C604  C605  1.369 .      A
C605  N151  1.343 .      A
C605  C607  1.358 .      A
N151  C606  1.388 .      A
C606  N152  1.374 .      A
N152  C607  1.358 .      A
C607  C608  1.375 .      A
C610  C611  1.382 .      A
C610  C616  1.382 1_455  A
C611  C612  1.376 1_455  A
C612  C611  1.376 1_655  A
C612  C613  1.360 .      A
C613  N153  1.335 .      A
C613  C615  1.357 .      A
N153  C614  1.391 .      A
C614  N154  1.388 .      A
N154  C615  1.341 .      A
C615  C616  1.363 .      A
C616  C610  1.382 1_655  A
C618  C619  1.388 .      A
C618  C624  1.385 .      A
C619  C620  1.382 .      A
C620  C621  1.373 .      A
C621  N155  1.347 .      A
C621  C623  1.362 .      A
N155  C622  1.391 .      A
C622  N156  1.376 .      A
N156  C623  1.352 .      A
C623  C624  1.377 .      A
C626  C627  1.388 .      A
C626  C632  1.374 .      A
C627  C628  1.396 .      A
C628  C629  1.337 .      A
C629  N157  1.351 1_565  A
C629  C631  1.345 .      A
N157  C629  1.351 1_545  A
N157  C630  1.380 .      A
C630  N158  1.386 .      A
N158  C631  1.322 1_545  A
C631  N158  1.322 1_565  A
C631  C632  1.368 .      A
C634  C635  1.381 .      A
C634  C640  1.378 .      A
C635  C636  1.382 .      A
C636  C637  1.374 .      A
C637  N159  1.365 .      A
C637  C639  1.371 .      A
N159  C638  1.388 .      A
C638  N160  1.388 .      A
N160  C639  1.338 .      A
C639  C640  1.370 .      A
C642  C643  1.382 1_545  A
C642  C648  1.392 .      A
C643  C642  1.382 1_565  A
C643  C644  1.381 .      A
C644  C645  1.361 .      A
C645  N161  1.338 .      A
C645  C647  1.358 .      A
N161  C646  1.373 .      A
C646  N162  1.406 .      A
N162  C647  1.352 .      A
C647  C648  1.367 1_565  A
C648  C647  1.367 1_545  A
C650  C651  1.388 .      A
C650  C656  1.381 .      A
C651  C652  1.382 .      A
C652  C653  1.369 .      A
C653  N163  1.348 .      A
C653  C655  1.359 .      A
N163  C654  1.393 .      A
C654  N164  1.387 .      A
N164  C655  1.339 .      A
C655  C656  1.367 .      A
C658  C659  1.388 .      A
C658  C664  1.387 .      A
C659  C660  1.384 .      A
C660  C661  1.379 .      A
C661  N165  1.351 .      A
C661  C663  1.378 .      A
N165  C662  1.393 .      A
C662  N166  1.401 .      A
N166  C663  1.354 .      A
C663  C664  1.375 .      A
C666  C667  1.384 .      A
C666  C672  1.390 .      A
C667  C668  1.369 .      A
C668  C669  1.368 .      A
C669  N167  1.329 .      A
C669  C671  1.361 .      A
N167  C670  1.371 .      A
C670  N168  1.379 .      A
N168  C671  1.353 .      A
C671  C672  1.364 .      A
C674  C675  1.331 .      A
C674  C680  1.330 .      A
C675  C676  1.359 .      A
C676  C677  1.320 .      A
C677  N169  1.325 .      A
C677  C679  1.329 .      A
N169  C678  1.376 1_655  A
C678  N169  1.376 1_455  A
C678  N170  1.390 .      A
N170  C679  1.313 1_455  A
C679  N170  1.313 1_655  A
C679  C680  1.350 .      A
C682  C683  1.385 .      A
C682  C688  1.381 1_455  A
C683  C684  1.374 1_455  A
C684  C683  1.374 1_655  A
C684  C685  1.358 .      A
C685  N171  1.346 .      A
C685  C687  1.357 .      A
N171  C686  1.377 .      A
C686  N172  1.341 .      A
N172  C687  1.339 .      A
C687  C688  1.368 .      A
C688  C682  1.381 1_655  A
C690  C691  1.393 .      A
C690  C696  1.387 .      A
C691  C692  1.385 .      A
C692  C693  1.368 .      A
C693  N173  1.347 .      A
C693  C695  1.374 .      A
N173  C694  1.398 .      A
C694  N174  1.393 .      A
N174  C695  1.348 .      A
C695  C696  1.371 .      A
C698  C699  1.370 .      A
C698  C704  1.378 1_545  A
C699  C700  1.380 1_545  A
C700  C699  1.380 1_565  A
C700  C701  1.359 .      A
C701  N175  1.360 .      A
C701  C703  1.338 .      A
N175  C702  1.380 .      A
C702  N176  1.381 .      A
N176  C703  1.322 .      A
C703  C704  1.365 .      A
C704  C698  1.378 1_565  A
C706  C707  1.381 .      A
C706  C712  1.375 1_545  A
C707  C708  1.387 .      A
C708  C709  1.362 1_545  A
C709  C708  1.362 1_565  A
C709  N177  1.343 .      A
C709  C711  1.342 .      A
N177  C710  1.368 .      A
C710  N178  1.397 .      A
N178  C711  1.336 .      A
C711  C712  1.369 .      A
C712  C706  1.375 1_565  A
C714  C715  1.383 .      A
C714  C720  1.381 .      A
C715  C716  1.381 .      A
C716  C717  1.377 .      A
C717  N179  1.361 .      A
C717  C719  1.374 .      A
N179  C718  1.387 .      A
C718  N180  1.390 .      A
N180  C719  1.348 .      A
C719  C720  1.376 .      A
C722  C723  1.390 .      A
C722  C728  1.385 .      A
C723  C724  1.384 .      A
C724  C725  1.374 .      A
C725  N181  1.354 .      A
C725  C727  1.374 .      A
N181  C726  1.379 .      A
C726  N182  1.392 .      A
N182  C727  1.348 .      A
C727  C728  1.374 .      A
C730  C731  1.373 .      A
C730  C736  1.386 .      A
C731  C732  1.365 1_655  A
C732  C731  1.365 1_455  A
C732  C733  1.371 .      A
C733  N183  1.340 .      A
C733  C735  1.354 .      A
N183  C734  1.398 .      A
C734  N184  1.373 .      A
N184  C735  1.346 .      A
C735  C736  1.368 1_455  A
C736  C735  1.368 1_655  A
C738  C739  1.374 .      A
C738  C744  1.380 .      A
C739  C740  1.363 .      A
C740  C741  1.362 1_655  A
C741  C740  1.362 1_455  A
C741  N185  1.327 .      A
C741  C743  1.345 1_455  A
N185  C742  1.371 .      A
C742  N186  1.365 .      A
N186  C743  1.348 1_455  A
C743  C741  1.345 1_655  A
C743  N186  1.348 1_655  A
C743  C744  1.358 .      A
C746  C747  1.393 .      A
C746  C752  1.378 .      A
C747  C748  1.390 .      A
C748  C749  1.370 .      A
C749  N187  1.363 .      A
C749  C751  1.371 .      A
N187  C750  1.392 .      A
C750  N188  1.353 .      A
N188  C751  1.331 .      A
C751  C752  1.372 .      A
C754  C755  1.377 .      A
C754  C760  1.393 .      A
C755  C756  1.357 .      A
C756  C757  1.346 .      A
C757  N189  1.324 .      A
C757  C759  1.366 .      A
N189  C758  1.377 .      A
C758  N190  1.372 .      A
N190  C759  1.360 .      A
C759  C760  1.381 .      A
C762  C763  1.391 1_545  A
C762  C768  1.387 .      A
C763  C762  1.391 1_565  A
C763  C764  1.385 .      A
C764  C765  1.371 1_565  A
C765  C764  1.371 1_545  A
C765  N191  1.352 .      A
C765  C767  1.361 .      A
N191  C766  1.379 .      A
C766  N192  1.385 .      A
N192  C767  1.347 .      A
C767  C768  1.370 .      A
C770  C771  1.381 .      A
C770  C776  1.370 .      A
C771  C772  1.380 .      A
C772  C773  1.362 .      A
C773  N193  1.346 .      A
C773  C775  1.342 .      A
N193  C774  1.385 .      A
C774  N194  1.400 .      A
N194  C775  1.336 .      A
C775  C776  1.362 .      A
C778  C779  1.383 .      A
C778  C784  1.375 .      A
C779  C780  1.384 .      A
C780  C781  1.375 .      A
C781  N195  1.364 .      A
C781  C783  1.364 .      A
N195  C782  1.370 .      A
C782  N196  1.379 .      A
N196  C783  1.334 .      A
C783  C784  1.371 .      A
C786  C787  1.389 .      A
C786  C792  1.389 .      A
C787  C788  1.380 .      A
C788  C789  1.369 .      A
C789  N197  1.351 .      A
C789  C791  1.375 .      A
N197  C790  1.385 .      A
C790  N198  1.392 .      A
N198  C791  1.350 .      A
C791  C792  1.364 .      A
C794  C795  1.377 .      A
C794  C800  1.375 1_655  A
C795  C796  1.379 1_655  A
C796  C795  1.379 1_455  A
C796  C797  1.366 .      A
C797  N199  1.351 .      A
C797  C799  1.349 .      A
N199  C798  1.395 .      A
C798  N200  1.395 .      A
N200  C799  1.331 .      A
C799  C800  1.355 .      A
C800  C794  1.375 1_455  A
C802  C803  1.353 .      A
C802  C808  1.335 .      A
C803  C804  1.378 .      A
C804  C805  1.351 .      A
C805  N201  1.348 .      A
C805  C807  1.325 .      A
N201  C806  1.377 .      A
C806  N202  1.377 .      A
N202  C807  1.315 .      A
C807  C808  1.365 .      A
C810  C811  1.384 .      A
C810  C816  1.381 .      A
C811  C812  1.385 .      A
C812  C813  1.377 .      A
C813  N203  1.367 .      A
C813  C815  1.372 .      A
N203  C814  1.386 .      A
C814  N204  1.398 .      A
N204  C815  1.331 .      A
C815  C816  1.370 .      A
C818  C819  1.387 .      A
C818  C824  1.383 .      A
C819  C820  1.385 .      A
C820  C821  1.369 .      A
C821  N205  1.357 .      A
C821  C823  1.377 .      A
N205  C822  1.382 .      A
C822  N206  1.376 .      A
N206  C823  1.349 .      A
C823  C824  1.374 .      A
C826  C827  1.382 .      A
C826  C832  1.381 .      A
C827  C828  1.380 .      A
C828  C829  1.362 .      A
C829  N207  1.341 .      A
C829  C831  1.365 .      A
N207  C830  1.389 .      A
C830  N208  1.358 .      A
N208  C831  1.350 .      A
C831  C832  1.363 .      A
C834  C835  1.384 .      A
C834  C840  1.384 .      A
C835  C836  1.380 .      A
C836  C837  1.370 .      A
C837  N209  1.346 .      A
C837  C839  1.365 .      A
N209  C838  1.381 .      A
C838  N210  1.394 .      A
N210  C839  1.354 .      A
C839  C840  1.369 .      A
C842  C843  1.382 .      A
C842  C848  1.388 .      A
C843  C844  1.377 .      A
C844  C845  1.370 .      A
C845  N211  1.352 .      A
C845  C847  1.354 .      A
N211  C846  1.381 .      A
C846  N212  1.385 .      A
N212  C847  1.338 .      A
C847  C848  1.373 .      A
C850  C851  1.389 .      A
C850  C856  1.387 1_455  A
C851  C852  1.381 .      A
C852  C853  1.369 .      A
C853  N213  1.341 .      A
C853  C855  1.366 .      A
N213  C854  1.377 .      A
C854  N214  1.384 .      A
N214  C855  1.358 .      A
C855  C856  1.372 1_455  A
C856  C850  1.387 1_655  A
C856  C855  1.372 1_655  A
C858  C859  1.386 .      A
C858  C864  1.383 .      A
C859  C860  1.382 .      A
C860  C861  1.367 .      A
C861  N215  1.345 1_455  A
C861  C863  1.368 1_455  A
N215  C861  1.345 1_655  A
N215  C862  1.381 .      A
C862  N216  1.385 .      A
N216  C863  1.342 .      A
C863  C861  1.368 1_655  A
C863  C864  1.368 1_655  A
C864  C863  1.368 1_455  A
C866  C867  1.391 .      A
C866  C872  1.380 .      A
C867  C868  1.385 .      A
C868  C869  1.370 .      A
C869  N217  1.344 .      A
C869  C871  1.349 .      A
N217  C870  1.375 .      A
C870  N218  1.388 .      A
N218  C871  1.342 .      A
C871  C872  1.367 .      A
C874  C875  1.391 .      A
C874  C880  1.386 .      A
C875  C876  1.385 .      A
C876  C877  1.372 .      A
C877  N219  1.351 .      A
C877  C879  1.363 .      A
N219  C878  1.366 .      A
C878  N220  1.386 .      A
N220  C879  1.345 .      A
C879  C880  1.372 .      A
C882  C883  1.383 .      A
C882  C888  1.384 .      A
C883  C884  1.387 .      A
C884  C885  1.357 .      A
C885  N221  1.349 .      A
C885  C887  1.350 .      A
N221  C886  1.398 .      A
C886  N222  1.403 .      A
N222  C887  1.333 .      A
C887  C888  1.364 .      A
C890  C891  1.388 .      A
C890  C896  1.386 .      A
C891  C892  1.382 .      A
C892  C893  1.373 .      A
C893  N223  1.345 .      A
C893  C895  1.360 .      A
N223  C894  1.383 .      A
C894  N224  1.376 .      A
N224  C895  1.347 .      A
C895  C896  1.373 .      A
C898  C899  1.382 1_554  A
C898  C904  1.397 .      A
C899  C898  1.382 1_556  A
C899  C900  1.372 .      A
C900  C901  1.365 .      A
C901  N225  1.332 .      A
C901  C903  1.369 1_556  A
N225  C902  1.382 1_556  A
C902  N225  1.382 1_554  A
C902  N226  1.380 .      A
N226  C903  1.366 .      A
C903  C901  1.369 1_554  A
C903  C904  1.376 .      A
C906  C907  1.379 1_655  A
C906  C912  1.383 .      A
C907  C906  1.379 1_455  A
C907  C908  1.376 .      A
C908  C909  1.370 .      A
C909  N227  1.347 .      A
C909  C911  1.383 1_455  A
N227  C910  1.383 .      A
C910  N228  1.395 1_455  A
N228  C910  1.395 1_655  A
N228  C911  1.347 .      A
C911  C909  1.383 1_655  A
C911  C912  1.376 .      A
C914  C915  1.384 .      A
C914  C920  1.384 .      A
C915  C916  1.380 .      A
C916  C917  1.367 .      A
C917  N229  1.350 .      A
C917  C919  1.362 .      A
N229  C918  1.386 .      A
C918  N230  1.390 .      A
N230  C919  1.347 .      A
C919  C920  1.372 .      A
C922  C923  1.389 .      A
C922  C928  1.382 .      A
C923  C924  1.387 .      A
C924  C925  1.371 .      A
C925  N231  1.353 .      A
C925  C927  1.378 .      A
N231  C926  1.376 .      A
C926  N232  1.356 .      A
N232  C927  1.346 .      A
C927  C928  1.368 .      A
C930  C931  1.389 .      A
C930  C936  1.386 .      A
C931  C932  1.383 .      A
C932  C933  1.376 .      A
C933  N233  1.344 .      A
C933  C935  1.358 .      A
N233  C934  1.380 .      A
C934  N234  1.392 .      A
N234  C935  1.359 .      A
C935  C936  1.384 .      A
C938  C939  1.386 .      A
C938  C944  1.385 .      A
C939  C940  1.382 .      A
C940  C941  1.365 .      A
C941  N235  1.347 .      A
C941  C943  1.357 .      A
N235  C942  1.377 .      A
C942  N236  1.391 .      A
N236  C943  1.340 .      A
C943  C944  1.363 .      A
C946  C947  1.385 .      A
C946  C952  1.383 .      A
C947  C948  1.377 .      A
C948  C949  1.376 .      A
C949  N237  1.347 .      A
C949  C951  1.357 .      A
N237  C950  1.386 .      A
C950  N238  1.370 .      A
N238  C951  1.340 .      A
C951  C952  1.365 .      A
C954  C955  1.385 .      A
C954  C960  1.387 .      A
C955  C956  1.377 .      A
C956  C957  1.373 .      A
C957  N239  1.339 .      A
C957  C959  1.367 .      A
N239  C958  1.385 .      A
C958  N240  1.384 .      A
N240  C959  1.355 .      A
C959  C960  1.371 .      A
S1    O1    1.533 .      D
S1    O2    1.523 .      D
S2    O4    1.495 .      D
S2    O5    1.514 .      D
S3    O7    1.534 .      D
S3    O8    1.537 .      D
S4    O10   1.523 .      D
S4    O11   1.530 .      D
S5    O13   1.509 .      D
S5    O14   1.532 .      D
S6    O16   1.508 .      D
S6    O17   1.524 .      D
S7    O19   1.532 .      D
S7    O20   1.533 .      D
S8    O22   1.534 .      D
S8    O23   1.528 .      D
S9    O25   1.535 .      D
S9    O26   1.533 .      D
S10   O28   1.525 .      D
S10   O29   1.486 .      D
S11   O31   1.515 .      D
S11   O32   1.515 .      D
S12   O34   1.525 .      D
S12   O35   1.527 .      D
S13   O37   1.532 .      D
S13   O38   1.533 .      D
S14   O40   1.529 1_655  D
S14   O41   1.534 .      D
O40   S14   1.529 1_455  D
S15   O43   1.529 .      D
S15   O44   1.512 .      D
S16   O46   1.535 .      D
S16   O47   1.533 .      D
S17   O49   1.510 1_554  D
S17   O50   1.536 .      D
O49   S17   1.510 1_556  D
S18   O52   1.524 .      D
S18   O53   1.524 .      D
S19   O55   1.531 .      D
S19   O56   1.517 .      D
S20   O58   1.525 .      D
S20   O59   1.507 .      D
S21   O61   1.526 .      D
S21   O62   1.517 .      D
S22   O64   1.536 .      D
S22   O65   1.534 .      D
S23   O67   1.535 .      D
S23   O68   1.523 .      D
S24   O70   1.524 .      D
S24   O71   1.536 .      D
S25   O73   1.515 .      D
S25   O74   1.531 .      D
S26   O76   1.530 .      D
S26   O77   1.523 .      D
S27   O79   1.534 .      D
S27   O80   1.521 .      D
S28   O82   1.524 .      D
S28   O83   1.521 .      D
S29   O85   1.536 .      D
S29   O86   1.532 .      D
S30   O88   1.507 .      D
S30   O89   1.536 .      D
S31   O91   1.530 .      D
S31   O92   1.536 .      D
S32   O94   1.532 .      D
S32   O95   1.530 .      D
S33   O97   1.519 .      D
S33   O98   1.518 .      D
S34   O100  1.517 .      D
S34   O101  1.511 .      D
S35   O103  1.520 .      D
S35   O104  1.511 .      D
S36   O106  1.512 .      D
S36   O107  1.526 .      D
S37   O109  1.532 .      D
S37   O110  1.532 .      D
S38   O112  1.532 1_655  D
S38   O113  1.531 1_655  D
O112  S38   1.532 1_455  D
O113  S38   1.531 1_455  D
S39   O115  1.532 .      D
S39   O116  1.530 1_655  D
O116  S39   1.530 1_455  D
S40   O118  1.522 .      D
S40   O119  1.517 .      D
S41   O121  1.524 .      D
S41   O122  1.529 .      D
S42   O124  1.531 .      D
S42   O125  1.535 .      D
S43   O127  1.524 .      D
S43   O128  1.531 .      D
S44   O130  1.506 .      D
S44   O131  1.532 .      D
S45   O133  1.533 .      D
S45   O134  1.530 .      D
S46   O136  1.524 .      D
S46   O137  1.530 .      D
S47   O139  1.537 .      D
S47   O140  1.514 .      D
S48   O142  1.534 1_455  D
S48   O143  1.521 .      D
O142  S48   1.534 1_655  D
S49   O145  1.533 .      D
S49   O146  1.524 .      D
S50   O148  1.534 .      D
S50   O149  1.535 .      D
S51   O151  1.518 .      D
S51   O152  1.532 .      D
S52   O154  1.527 .      D
S52   O155  1.526 .      D
S53   O157  1.532 .      D
S53   O158  1.531 .      D
S54   O160  1.534 .      D
S54   O161  1.536 .      D
S55   O163  1.525 1_545  D
S55   O164  1.529 .      D
O163  S55   1.525 1_565  D
S56   O166  1.530 .      D
S56   O167  1.535 .      D
S57   O169  1.524 .      D
S57   O170  1.517 .      D
S58   O172  1.534 .      D
S58   O173  1.516 .      D
S59   O175  1.527 .      D
S59   O176  1.528 .      D
S60   O178  1.535 .      D
S60   O179  1.525 .      D
S61   O181  1.533 .      D
S61   O182  1.534 .      D
S62   O184  1.534 1_565  D
S62   O185  1.534 .      D
O184  S62   1.534 1_545  D
S63   O187  1.535 .      D
S63   O188  1.522 1_565  D
O188  S63   1.522 1_545  D
S64   O190  1.526 .      D
S64   O191  1.530 .      D
S65   O193  1.536 .      D
S65   O194  1.533 1_455  D
O194  S65   1.533 1_655  D
S66   O196  1.532 .      D
S66   O197  1.534 .      D
S67   O199  1.528 .      D
S67   O200  1.533 .      D
S68   O202  1.511 .      D
S68   O203  1.524 .      D
S69   O205  1.518 .      D
S69   O206  1.533 .      D
S70   O208  1.534 .      D
S70   O209  1.533 .      D
S71   O211  1.517 .      D
S71   O212  1.516 .      D
S72   O214  1.500 .      D
S72   O215  1.537 .      D
S73   O217  1.535 .      D
S73   O218  1.531 .      D
S74   O220  1.526 .      D
S74   O221  1.522 .      D
S75   O223  1.527 .      D
S75   O224  1.531 1_455  D
O224  S75   1.531 1_655  D
S76   O226  1.503 .      D
S76   O227  1.530 1_655  D
O227  S76   1.530 1_455  D
S77   O229  1.521 .      D
S77   O230  1.530 .      D
S78   O232  1.534 .      D
S78   O233  1.528 .      D
S79   O235  1.532 .      D
S79   O236  1.532 .      D
S80   O238  1.507 .      D
S80   O239  1.526 .      D
S81   O241  1.524 .      D
S81   O242  1.531 .      D
S82   O244  1.521 .      D
S82   O245  1.510 .      D
S83   O247  1.535 .      D
S83   O248  1.502 .      D
S84   O250  1.525 .      D
S84   O251  1.508 .      D
S85   O253  1.533 .      D
S85   O254  1.522 .      D
S86   O256  1.483 .      D
S86   O257  1.518 .      D
S87   O259  1.531 .      D
S87   O260  1.532 .      D
S88   O262  1.522 .      D
S88   O263  1.528 .      D
S89   O265  1.526 .      D
S89   O266  1.534 .      D
S90   O268  1.527 .      D
S90   O269  1.524 .      D
S91   O271  1.531 .      D
S91   O272  1.522 .      D
S92   O274  1.536 .      D
S92   O275  1.527 .      D
S93   O277  1.521 .      D
S93   O278  1.532 .      D
S94   O280  1.487 .      D
S94   O281  1.530 .      D
S95   O283  1.523 .      D
S95   O284  1.530 .      D
S96   O286  1.531 .      D
S96   O287  1.534 .      D
S97   O289  1.535 .      D
S97   O290  1.524 .      D
S98   O292  1.528 .      D
S98   O293  1.520 .      D
S99   O295  1.509 .      D
S99   O296  1.505 .      D
S100  O298  1.535 .      D
S100  O299  1.533 .      D
S101  O301  1.522 1_455  D
S101  O302  1.535 .      D
O301  S101  1.522 1_655  D
S102  O304  1.533 .      D
S102  O305  1.535 .      D
S103  O307  1.517 1_556  D
S103  O308  1.528 .      D
O307  S103  1.517 1_554  D
S104  O310  1.510 .      D
S104  O311  1.529 .      D
S105  O313  1.524 1_455  D
S105  O314  1.519 .      D
O313  S105  1.524 1_655  D
S106  O316  1.526 .      D
S106  O317  1.536 .      D
S107  O319  1.535 .      D
S107  O320  1.513 1_455  D
O320  S107  1.513 1_655  D
S108  O322  1.533 .      D
S108  O323  1.537 .      D
S109  O325  1.522 .      D
S109  O326  1.528 .      D
S110  O328  1.531 .      D
S110  O329  1.503 .      D
S111  O331  1.536 .      D
S111  O332  1.528 .      D
S112  O334  1.535 .      D
S112  O335  1.532 .      D
S113  O337  1.514 .      D
S113  O338  1.519 1_554  D
O338  S113  1.519 1_556  D
S114  O340  1.534 .      D
S114  O341  1.534 .      D
S115  O343  1.527 .      D
S115  O344  1.523 .      D
S116  O346  1.492 .      D
S116  O347  1.525 .      D
S117  O349  1.529 1_565  D
S117  O350  1.531 1_565  D
O349  S117  1.529 1_545  D
O350  S117  1.531 1_545  D
S118  O352  1.528 .      D
S118  O353  1.523 .      D
S119  O355  1.524 .      D
S119  O356  1.522 .      D
S120  O358  1.523 .      D
S120  O359  1.508 .      D
