data_str_m1_o12014_OBW
_audit_creation_date              2015-10-01T06:37:30-0700
_symmetry_space_group_name_H-M    P1
_symmetry_Int_Tables_number       1
_space_group_crystal_system       triclinic
loop_
_symmetry_equiv_pos_as_xyz
  x,y,z
_cell_length_a                    29.1717006
_cell_length_b                    29.4534384
_cell_length_c                    36.8655711
_cell_angle_alpha                 108.619783
_cell_angle_beta                  105.672736
_cell_angle_gamma                 95.7006523
_cell_volume                      28297.0539021

loop_
_atom_site_label
_atom_site_type_symbol
_atom_site_description
_atom_site_fract_x
_atom_site_fract_y
_atom_site_fract_z
_atom_type_partial_charge
Zn1   Zn    Zn3+2 0.342981 0.992993 0.557064 0.000000
Zn2   Zn    Zn3+2 0.503929 0.134784 0.551555 0.000000
Zn3   Zn    Zn3+2 0.113502 0.397620 0.766852 0.000000
Zn4   Zn    Zn3+2 0.017730 0.801404 0.878570 0.000000
Zn5   Zn    Zn3+2 0.079773 0.021444 0.006485 0.000000
Zn6   Zn    Zn3+2 0.083920 0.235598 0.014793 0.000000
Zn7   Zn    Zn3+2 0.035429 0.329401 0.881746 0.000000
Zn8   Zn    Zn3+2 0.972924 0.745180 0.284016 0.000000
Zn9   Zn    Zn3+2 0.099662 0.624644 0.784518 0.000000
Zn10  Zn    Zn3+2 0.500473 0.636942 0.570198 0.000000
Zn11  Zn    Zn3+2 0.569017 0.211863 0.002742 0.000000
Zn12  Zn    Zn3+2 0.469018 0.170385 0.114253 0.000000
Zn13  Zn    Zn3+2 0.557308 0.005727 0.016020 0.000000
Zn14  Zn    Zn3+2 0.505509 0.302010 0.871867 0.000000
Zn15  Zn    Zn3+2 0.717921 0.376287 0.002868 0.000000
Zn16  Zn    Zn3+2 0.501230 0.784083 0.894742 0.000000
Zn17  Zn    Zn3+2 0.712960 0.873339 0.024368 0.000000
Zn18  Zn    Zn3+2 0.266027 0.185740 0.128337 0.000000
Zn19  Zn    Zn3+2 0.455236 0.265744 0.289978 0.000000
Zn20  Zn    Zn3+2 0.854695 0.798722 0.554756 0.000000
Zn21  Zn    Zn3+2 0.866969 0.567548 0.117042 0.000000
Zn22  Zn    Zn3+2 0.934709 0.381142 0.015859 0.000000
Zn23  Zn    Zn3+2 0.341157 0.387948 0.781840 0.000000
Zn24  Zn    Zn3+2 0.409464 0.204844 0.685360 0.000000
Zn25  Zn    Zn3+2 0.918749 0.863832 0.008016 0.000000
Zn26  Zn    Zn3+2 0.864216 0.777462 0.123573 0.000000
Zn27  Zn    Zn3+2 0.401783 0.711965 0.702667 0.000000
Zn28  Zn    Zn3+2 0.324367 0.610006 0.799040 0.000000
Zn29  Zn    Zn3+2 0.551464 0.450757 0.462947 0.000000
Zn30  Zn    Zn3+2 0.572804 0.243514 0.453492 0.000000
Zn31  Zn    Zn3+2 0.718591 0.157452 0.553650 0.000000
Zn32  Zn    Zn3+2 0.346945 0.777359 0.554261 0.000000
Zn33  Zn    Zn3+2 0.871129 0.019774 0.557416 0.000000
Zn34  Zn    Zn3+2 0.935498 0.709622 0.691535 0.000000
Zn35  Zn    Zn3+2 0.955590 0.860072 0.451738 0.000000
Zn36  Zn    Zn3+2 0.161405 0.825761 0.442593 0.000000
Zn37  Zn    Zn3+2 0.919695 0.231882 0.690456 0.000000
Zn38  Zn    Zn3+2 0.717671 0.637789 0.570002 0.000000
C1    C     C_3   0.447828 0.067802 0.626546 0.000000
C2    C     C_3   0.467381 0.051500 0.592272 0.000000
C3    C     C_3   0.482074 0.002862 0.589152 0.000000
C4    C     C_R   0.434216 0.052591 0.553988 0.000000
N1    N     N_R   0.392427 0.017762 0.531234 0.000000
C5    C     C_R   0.394218 0.009307 0.492671 0.000000
C6    C     C_R   0.369079 0.971668 0.456191 0.000000
C7    C     C_R   0.383256 0.966943 0.422524 0.000000
C8    C     C_R   0.424082 0.997509 0.425075 0.000000
C9    C     C_R   0.449661 0.034226 0.461466 0.000000
C10   C     C_R   0.432549 0.040487 0.493683 0.000000
N2    N     N_R   0.455577 0.070989 0.531486 0.000000
C11   C     C_2   0.440523 0.990396 0.389744 0.000000
O1    O     O_2   0.417268 0.958487 0.357403 0.000000
O2    O     O_2   0.481214 0.019247 0.392779 0.000000
H1    H     H_    0.432729 0.100286 0.625856 0.000000
H2    H     H_    0.419221 0.037777 0.622049 0.000000
H3    H     H_    0.477084 0.075974 0.655449 0.000000
H4    H     H_    0.501144 0.075875 0.598265 0.000000
H5    H     H_    0.494553 0.988818 0.562692 0.000000
H6    H     H_    0.512692 0.008328 0.616647 0.000000
H7    H     H_    0.451976 0.976018 0.587579 0.000000
H8    H     H_    0.340238 0.943555 0.452557 0.000000
H9    H     H_    0.363136 0.937255 0.394561 0.000000
H10   H     H_    0.482667 0.057631 0.464940 0.000000
H11   H     H_    0.491758 0.014805 0.369416 0.000000
C12   C     C_3   0.387550 0.827196 0.497935 0.000000
C13   C     C_3   0.400204 0.878210 0.527415 0.000000
C14   C     C_3   0.392767 0.909128 0.502961 0.000000
C15   C     C_R   0.370018 0.887530 0.555283 0.000000
N3    N     N_R   0.368479 0.935379 0.576948 0.000000
C16   C     C_R   0.367121 0.932153 0.612247 0.000000
C17   C     C_R   0.364812 0.968836 0.644636 0.000000
C18   C     C_R   0.346886 0.957810 0.672484 0.000000
C19   C     C_R   0.330757 0.909600 0.666421 0.000000
C20   C     C_R   0.339843 0.873181 0.636395 0.000000
C21   C     C_R   0.359394 0.884994 0.609706 0.000000
N4    N     N_R   0.362381 0.854928 0.574348 0.000000
C22   C     C_2   0.302023 0.896974 0.690267 0.000000
O3    O     O_2   0.290288 0.854464 0.686683 0.000000
O4    O     O_2   0.287185 0.932202 0.715363 0.000000
H12   H     H_    0.354174 0.825005 0.474084 0.000000
H13   H     H_    0.417226 0.819366 0.484834 0.000000
H14   H     H_    0.381672 0.801460 0.512741 0.000000
H15   H     H_    0.439360 0.887724 0.544995 0.000000
H16   H     H_    0.423612 0.940191 0.516982 0.000000
H17   H     H_    0.393732 0.889651 0.472062 0.000000
H18   H     H_    0.357198 0.919232 0.502295 0.000000
H19   H     H_    0.374233 0.005040 0.646242 0.000000
H20   H     H_    0.342296 0.986703 0.697159 0.000000
H21   H     H_    0.328900 0.836479 0.633526 0.000000
H22   H     H_    0.267936 0.923779 0.730748 0.000000
C23   C     C_3   0.179127 0.887103 0.533897 0.000000
C24   C     C_3   0.221782 0.924627 0.541293 0.000000
C25   C     C_3   0.261312 0.921413 0.573978 0.000000
C26   C     C_R   0.240203 0.919697 0.506268 0.000000
N5    N     N_R   0.213341 0.892280 0.466023 0.000000
C27   C     C_R   0.232006 0.917852 0.446829 0.000000
C28   C     C_R   0.224548 0.906611 0.406649 0.000000
C29   C     C_R   0.240134 0.942817 0.393723 0.000000
C30   C     C_R   0.263879 0.989211 0.421638 0.000000
C31   C     C_R   0.278201 0.996802 0.462475 0.000000
C32   C     C_R   0.265105 0.958424 0.473648 0.000000
N6    N     N_R   0.276239 0.957196 0.510967 0.000000
C33   C     C_2   0.276331 0.029208 0.408216 0.000000
O5    O     O_2   0.267809 0.021737 0.372331 0.000000
O6    O     O_2   0.295936 0.074740 0.435496 0.000000
H23   H     H_    0.181137 0.853486 0.511448 0.000000
H24   H     H_    0.179236 0.881146 0.561993 0.000000
H25   H     H_    0.145935 0.900502 0.524971 0.000000
H26   H     H_    0.212816 0.961324 0.551761 0.000000
H27   H     H_    0.289210 0.952928 0.580366 0.000000
H28   H     H_    0.250779 0.924694 0.601287 0.000000
H29   H     H_    0.272643 0.886523 0.562041 0.000000
H30   H     H_    0.206504 0.870959 0.385983 0.000000
H31   H     H_    0.231939 0.934979 0.361688 0.000000
H32   H     H_    0.300397 0.031048 0.484691 0.000000
H33   H     H_    0.302895 0.101425 0.426662 0.000000
C34   C     C_3   0.645233 0.220104 0.638977 0.000000
C35   C     C_3   0.621375 0.205560 0.593959 0.000000
C36   C     C_3   0.648539 0.237290 0.579319 0.000000
C37   C     C_R   0.616259 0.152795 0.569934 0.000000
N7    N     N_R   0.572124 0.121089 0.555747 0.000000
C38   C     C_R   0.582135 0.078021 0.536426 0.000000
C39   C     C_R   0.552482 0.032470 0.518982 0.000000
C40   C     C_R   0.567222 0.994554 0.494630 0.000000
C41   C     C_R   0.611066 0.002981 0.487675 0.000000
C42   C     C_R   0.642177 0.048085 0.508498 0.000000
C43   C     C_R   0.627909 0.084694 0.534616 0.000000
N8    N     N_R   0.651737 0.131584 0.556591 0.000000
C44   C     C_2   0.623910 0.965003 0.457386 0.000000
O7    O     O_2   0.598816 0.923865 0.441351 0.000000
O8    O     O_2   0.662244 0.976060 0.445796 0.000000
H34   H     H_    0.680725 0.245292 0.648925 0.000000
H35   H     H_    0.621731 0.239841 0.654859 0.000000
H36   H     H_    0.650176 0.187487 0.646877 0.000000
H37   H     H_    0.584739 0.212138 0.589638 0.000000
H38   H     H_    0.627375 0.231946 0.548161 0.000000
H39   H     H_    0.654523 0.276163 0.598898 0.000000
H40   H     H_    0.683197 0.225570 0.580729 0.000000
H41   H     H_    0.518959 0.025379 0.524308 0.000000
H42   H     H_    0.543095 0.959076 0.479707 0.000000
H43   H     H_    0.675690 0.054406 0.502772 0.000000
H44   H     H_    0.669676 0.951593 0.424759 0.000000
C45   C     C_3   0.048558 0.251199 0.640763 0.000000
C46   C     C_3   0.050662 0.250777 0.682264 0.000000
C47   C     C_3   0.101708 0.245557 0.702995 0.000000
C48   C     C_R   0.026748 0.291189 0.702928 0.000000
N9    N     N_R   0.047661 0.341971 0.719206 0.000000
C49   C     C_R   0.008429 0.360010 0.704268 0.000000
C50   C     C_R   0.000208 0.406818 0.715642 0.000000
C51   C     C_R   0.962969 0.417231 0.689587 0.000000
C52   C     C_R   0.933938 0.380051 0.654448 0.000000
C53   C     C_R   0.934701 0.331794 0.651247 0.000000
C54   C     C_R   0.968935 0.324047 0.681503 0.000000
N10   N     N_R   0.976442 0.281508 0.685738 0.000000
C55   C     C_2   0.900586 0.392370 0.623039 0.000000
O9    O     O_2   0.899996 0.435075 0.627329 0.000000
O10   O     O_2   0.870318 0.356920 0.589493 0.000000
H45   H     H_    0.085260 0.259921 0.639311 0.000000
H46   H     H_    0.032353 0.214131 0.617933 0.000000
H47   H     H_    0.027185 0.277820 0.633122 0.000000
H48   H     H_    0.026708 0.215928 0.676629 0.000000
H49   H     H_    0.100958 0.225463 0.723639 0.000000
H50   H     H_    0.115879 0.222232 0.680107 0.000000
H51   H     H_    0.127120 0.280928 0.718647 0.000000
H52   H     H_    0.020600 0.434835 0.743880 0.000000
H53   H     H_    0.958695 0.454722 0.695996 0.000000
H54   H     H_    0.909648 0.301905 0.625953 0.000000
H55   H     H_    0.847820 0.365881 0.569684 0.000000
C56   C     C_3   0.141204 0.565385 0.858185 0.000000
C57   C     C_3   0.110055 0.517145 0.829248 0.000000
C58   C     C_3   0.063133 0.504166 0.837448 0.000000
C59   C     C_R   0.101852 0.511512 0.786701 0.000000
N11   N     N_R   0.087973 0.545531 0.768565 0.000000
C60   C     C_R   0.078271 0.517712 0.729095 0.000000
C61   C     C_R   0.056716 0.528667 0.695717 0.000000
C62   C     C_R   0.045438 0.493315 0.657893 0.000000
C63   C     C_R   0.054550 0.447083 0.653427 0.000000
C64   C     C_R   0.078662 0.437200 0.686969 0.000000
C65   C     C_R   0.089466 0.472617 0.724538 0.000000
N12   N     N_R   0.104155 0.466695 0.760427 0.000000
C66   C     C_2   0.032389 0.407450 0.614158 0.000000
O11   O     O_2   0.021579 0.416535 0.583259 0.000000
O12   O     O_2   0.018722 0.361671 0.612519 0.000000
H56   H     H_    0.124640 0.594781 0.851398 0.000000
H57   H     H_    0.145424 0.568789 0.889716 0.000000
H58   H     H_    0.177406 0.566876 0.854066 0.000000
H59   H     H_    0.130807 0.489411 0.832766 0.000000
H60   H     H_    0.059605 0.467062 0.838729 0.000000
H61   H     H_    0.063633 0.529928 0.867002 0.000000
H62   H     H_    0.031412 0.503879 0.812671 0.000000
H63   H     H_    0.047159 0.563195 0.698006 0.000000
H64   H     H_    0.026402 0.501172 0.631986 0.000000
H65   H     H_    0.083577 0.401145 0.684187 0.000000
H66   H     H_    0.000518 0.336155 0.586956 0.000000
C67   C     C_3   0.115746 0.808228 0.849571 0.000000
C68   C     C_3   0.102456 0.754797 0.823625 0.000000
C69   C     C_3   0.149334 0.741909 0.818636 0.000000
C70   C     C_R   0.079462 0.723488 0.841500 0.000000
N13   N     N_R   0.078599 0.673382 0.830378 0.000000
C71   C     C_R   0.054673 0.660895 0.853184 0.000000
C72   C     C_R   0.037833 0.614463 0.849838 0.000000
C73   C     C_R   0.009688 0.607642 0.872998 0.000000
C74   C     C_R   0.999264 0.647625 0.899347 0.000000
C75   C     C_R   0.015314 0.694536 0.901147 0.000000
C76   C     C_R   0.041070 0.700328 0.876096 0.000000
N14   N     N_R   0.053533 0.740749 0.867829 0.000000
C77   C     C_2   0.968576 0.639722 0.923307 0.000000
O13   O     O_2   0.958488 0.599331 0.924814 0.000000
O14   O     O_2   0.949942 0.676498 0.942550 0.000000
H67   H     H_    0.147289 0.814991 0.876522 0.000000
H68   H     H_    0.127114 0.829732 0.832564 0.000000
H69   H     H_    0.084279 0.819591 0.857785 0.000000
H70   H     H_    0.076437 0.748140 0.793959 0.000000
H71   H     H_    0.177121 0.749832 0.848239 0.000000
H72   H     H_    0.141218 0.703318 0.800786 0.000000
H73   H     H_    0.163165 0.762988 0.802333 0.000000
H74   H     H_    0.042522 0.584374 0.826482 0.000000
H75   H     H_    0.994796 0.570835 0.869469 0.000000
H76   H     H_    0.008589 0.725151 0.922448 0.000000
H77   H     H_    0.928775 0.670741 0.957421 0.000000
C78   C     C_3   0.038393 0.799423 0.742408 0.000000
C79   C     C_3   0.020102 0.819731 0.777424 0.000000
C80   C     C_3   0.997166 0.861233 0.770780 0.000000
C81   C     C_R   0.986059 0.782792 0.784185 0.000000
N15   N     N_R   0.947692 0.748239 0.752824 0.000000
C82   C     C_R   0.914353 0.743982 0.771341 0.000000
C83   C     C_R   0.870902 0.711860 0.757098 0.000000
C84   C     C_R   0.838992 0.721688 0.778922 0.000000
C85   C     C_R   0.849733 0.764812 0.811980 0.000000
C86   C     C_R   0.897149 0.791564 0.829273 0.000000
C87   C     C_R   0.929987 0.775885 0.809898 0.000000
N16   N     N_R   0.977053 0.796295 0.820832 0.000000
C88   C     C_2   0.811531 0.779373 0.829468 0.000000
O15   O     O_2   0.769964 0.755799 0.813130 0.000000
O16   O     O_2   0.821753 0.818762 0.863356 0.000000
H78   H     H_    0.007303 0.776508 0.716020 0.000000
H79   H     H_    0.055129 0.829833 0.735524 0.000000
H80   H     H_    0.067296 0.779548 0.749751 0.000000
H81   H     H_    0.051113 0.837722 0.804893 0.000000
H82   H     H_    0.965862 0.863489 0.782145 0.000000
H83   H     H_    0.024908 0.895527 0.786117 0.000000
H84   H     H_    0.986162 0.856452 0.738505 0.000000
H85   H     H_    0.861715 0.679929 0.730108 0.000000
H86   H     H_    0.804399 0.696951 0.768659 0.000000
H87   H     H_    0.908026 0.823623 0.856614 0.000000
H88   H     H_    0.795987 0.827110 0.874473 0.000000
C89   C     C_3   0.983744 0.965786 0.916680 0.000000
C90   C     C_3   0.008764 0.929902 0.893921 0.000000
C91   C     C_3   0.016922 0.944859 0.860540 0.000000
C92   C     C_R   0.055471 0.922930 0.920043 0.000000
N17   N     N_R   0.085488 0.957276 0.957904 0.000000
C93   C     C_R   0.118296 0.931049 0.969341 0.000000
C94   C     C_R   0.152908 0.944187 0.006369 0.000000
C95   C     C_R   0.182385 0.912143 0.013492 0.000000
C96   C     C_R   0.174819 0.865966 0.984542 0.000000
C97   C     C_R   0.135545 0.850764 0.949287 0.000000
C98   C     C_R   0.107609 0.884073 0.942149 0.000000
N18   N     N_R   0.065157 0.875620 0.912357 0.000000
C99   C     C_2   0.207541 0.832952 0.992020 0.000000
O17   O     O_2   0.239187 0.844632 0.024584 0.000000
O18   O     O_2   0.204493 0.790727 0.962398 0.000000
H89   H     H_    0.011355 0.995238 0.941634 0.000000
H90   H     H_    0.960818 0.981331 0.896318 0.000000
H91   H     H_    0.959346 0.947140 0.928067 0.000000
H92   H     H_    0.983103 0.894136 0.878201 0.000000
H93   H     H_    0.049003 0.931873 0.853623 0.000000
H94   H     H_    0.983348 0.929561 0.834495 0.000000
H95   H     H_    0.021194 0.984376 0.868212 0.000000
H96   H     H_    0.157327 0.978628 0.029571 0.000000
H97   H     H_    0.211126 0.923575 0.042088 0.000000
H98   H     H_    0.125864 0.813166 0.929024 0.000000
H99   H     H_    0.228051 0.770770 0.967230 0.000000
C100  C     C_3   0.072683 0.170296 0.082004 0.000000
C101  C     C_3   0.039351 0.130107 0.046105 0.000000
C102  C     C_3   0.988836 0.141665 0.038864 0.000000
C103  C     C_R   0.056883 0.124303 0.010826 0.000000
N19   N     N_R   0.057752 0.158760 0.992748 0.000000
C104  C     C_R   0.056472 0.131137 0.955332 0.000000
C105  C     C_R   0.050434 0.144555 0.922347 0.000000
C106  C     C_R   0.060551 0.114175 0.889534 0.000000
C107  C     C_R   0.078435 0.072666 0.891345 0.000000
C108  C     C_R   0.078862 0.057414 0.923400 0.000000
C109  C     C_R   0.064215 0.085948 0.953859 0.000000
N20   N     N_R   0.063212 0.079366 0.988224 0.000000
C110  C     C_2   0.096312 0.044725 0.859131 0.000000
O19   O     O_2   0.092692 0.055975 0.829546 0.000000
O20   O     O_2   0.117923 0.007306 0.862558 0.000000
H100  H     H_    0.067964 0.202108 0.073467 0.000000
H101  H     H_    0.061645 0.173439 0.109075 0.000000
H102  H     H_    0.110460 0.165003 0.086544 0.000000
H103  H     H_    0.037614 0.095579 0.051261 0.000000
H104  H     H_    0.969181 0.127841 0.006140 0.000000
H105  H     H_    0.968992 0.123855 0.054089 0.000000
H106  H     H_    0.989952 0.181356 0.051656 0.000000
H107  H     H_    0.037629 0.177417 0.921642 0.000000
H108  H     H_    0.057518 0.124999 0.863762 0.000000
H109  H     H_    0.090340 0.024098 0.924247 0.000000
H110  H     H_    0.129843 0.989121 0.841404 0.000000
C111  C     C_3   0.015634 0.295642 0.962725 0.000000
C112  C     C_3   0.064409 0.325122 0.974939 0.000000
C113  C     C_3   0.100364 0.343505 0.016995 0.000000
C114  C     C_R   0.080449 0.289031 0.950601 0.000000
N21   N     N_R   0.100482 0.253898 0.962866 0.000000
C115  C     C_R   0.122579 0.238531 0.933646 0.000000
C116  C     C_R   0.150214 0.203337 0.926603 0.000000
C117  C     C_R   0.173028 0.198682 0.897630 0.000000
C118  C     C_R   0.168706 0.229054 0.875460 0.000000
C119  C     C_R   0.137880 0.261563 0.880113 0.000000
C120  C     C_R   0.112770 0.262846 0.906937 0.000000
N22   N     N_R   0.079978 0.290456 0.913983 0.000000
C121  C     C_2   0.195591 0.225721 0.846597 0.000000
O21   O     O_2   0.223091 0.197227 0.842891 0.000000
O22   O     O_2   0.190444 0.254422 0.824347 0.000000
H111  H     H_    0.000694 0.285656 0.929829 0.000000
H112  H     H_    0.018624 0.259472 0.963813 0.000000
H113  H     H_    0.992676 0.314680 0.977996 0.000000
H114  H     H_    0.066425 0.354677 0.963635 0.000000
H115  H     H_    0.136931 0.353738 0.014911 0.000000
H116  H     H_    0.091787 0.377298 0.034499 0.000000
H117  H     H_    0.102573 0.316363 0.031698 0.000000
H118  H     H_    0.153573 0.177911 0.941172 0.000000
H119  H     H_    0.195007 0.171234 0.893049 0.000000
H120  H     H_    0.133512 0.285883 0.863604 0.000000
H121  H     H_    0.208372 0.252343 0.805540 0.000000
C122  C     C_3   0.014767 0.188625 0.756513 0.000000
C123  C     C_3   0.990806 0.206160 0.788789 0.000000
C124  C     C_3   0.025864 0.214811 0.829082 0.000000
C125  C     C_R   0.969406 0.250735 0.788647 0.000000
N23   N     N_R   0.976703 0.290211 0.824470 0.000000
C126  C     C_R   0.940933 0.313473 0.812628 0.000000
C127  C     C_R   0.936383 0.360605 0.831725 0.000000
C128  C     C_R   0.897812 0.377997 0.813423 0.000000
C129  C     C_R   0.863708 0.348026 0.777153 0.000000
C130  C     C_R   0.872904 0.303831 0.756093 0.000000
C131  C     C_R   0.913820 0.289225 0.773209 0.000000
N24   N     N_R   0.933544 0.252360 0.755286 0.000000
C132  C     C_2   0.819047 0.363746 0.760567 0.000000
O23   O     O_2   0.813358 0.404807 0.777130 0.000000
O24   O     O_2   0.783505 0.332437 0.727657 0.000000
H122  H     H_    0.001301 0.202972 0.732138 0.000000
H123  H     H_    0.054801 0.199914 0.770033 0.000000
H124  H     H_    0.006224 0.148088 0.743730 0.000000
H125  H     H_    0.962802 0.176262 0.785718 0.000000
H126  H     H_    0.043532 0.182986 0.827933 0.000000
H127  H     H_    0.052525 0.247314 0.835697 0.000000
H128  H     H_    0.006711 0.220521 0.851905 0.000000
H129  H     H_    0.963108 0.385241 0.858993 0.000000
H130  H     H_    0.893641 0.414500 0.828545 0.000000
H131  H     H_    0.847711 0.280987 0.727579 0.000000
H132  H     H_    0.754059 0.342762 0.716879 0.000000
C133  C     C_3   0.019771 0.357011 0.786249 0.000000
C134  C     C_3   0.057800 0.332280 0.803379 0.000000
C135  C     C_3   0.090385 0.305966 0.783493 0.000000
C136  C     C_R   0.086857 0.371206 0.834930 0.000000
N25   N     N_R   0.119686 0.403667 0.830761 0.000000
C137  C     C_R   0.145956 0.427962 0.871142 0.000000
C138  C     C_R   0.185005 0.467363 0.890295 0.000000
C139  C     C_R   0.207806 0.481350 0.931495 0.000000
C140  C     C_R   0.191772 0.457159 0.953961 0.000000
C141  C     C_R   0.150798 0.420162 0.935408 0.000000
C142  C     C_R   0.127906 0.408073 0.894880 0.000000
N26   N     N_R   0.087593 0.374119 0.872280 0.000000
C143  C     C_2   0.216825 0.472008 0.997465 0.000000
O25   O     O_2   0.252855 0.504814 0.014096 0.000000
O26   O     O_2   0.199898 0.449681 0.019303 0.000000
H133  H     H_    0.037263 0.387857 0.781051 0.000000
H134  H     H_    0.988828 0.331860 0.761069 0.000000
H135  H     H_    0.007703 0.377825 0.811047 0.000000
H136  H     H_    0.048097 0.309686 0.818430 0.000000
H137  H     H_    0.118928 0.299199 0.806493 0.000000
H138  H     H_    0.068208 0.270565 0.763042 0.000000
H139  H     H_    0.109610 0.326423 0.770218 0.000000
H140  H     H_    0.198640 0.488125 0.874908 0.000000
H141  H     H_    0.238703 0.511596 0.945928 0.000000
H142  H     H_    0.136632 0.401172 0.951998 0.000000
H143  H     H_    0.216260 0.459645 0.047975 0.000000
C144  C     C_3   0.884830 0.712620 0.336552 0.000000
C145  C     C_3   0.930659 0.745767 0.368929 0.000000
C146  C     C_3   0.974233 0.723595 0.366439 0.000000
C147  C     C_R   0.939501 0.791483 0.361891 0.000000
N27   N     N_R   0.950387 0.792354 0.328083 0.000000
C148  C     C_R   0.955997 0.840554 0.333959 0.000000
C149  C     C_R   0.976555 0.865425 0.314537 0.000000
C150  C     C_R   0.977554 0.914808 0.324745 0.000000
C151  C     C_R   0.957719 0.938758 0.353803 0.000000
C152  C     C_R   0.943562 0.914764 0.376914 0.000000
C153  C     C_R   0.945583 0.865950 0.367646 0.000000
N28   N     N_R   0.939440 0.836854 0.388490 0.000000
C154  C     C_2   0.954246 0.990018 0.361561 0.000000
O27   O     O_2   0.975428 0.014161 0.347376 0.000000
O28   O     O_2   0.924959 0.009686 0.382098 0.000000
H144  H     H_    0.889294 0.704433 0.306538 0.000000
H145  H     H_    0.876695 0.678547 0.342380 0.000000
H146  H     H_    0.853604 0.730942 0.336113 0.000000
H147  H     H_    0.925596 0.752928 0.398432 0.000000
H148  H     H_    0.007649 0.751169 0.385337 0.000000
H149  H     H_    0.972794 0.690913 0.375026 0.000000
H150  H     H_    0.974775 0.714168 0.335373 0.000000
H151  H     H_    0.992799 0.848573 0.292528 0.000000
H152  H     H_    0.993367 0.934108 0.309203 0.000000
H153  H     H_    0.935444 0.935324 0.403430 0.000000
H154  H     H_    0.919654 0.042068 0.384061 0.000000
C155  C     C_3   0.113719 0.885396 0.362878 0.000000
C156  C     C_3   0.098349 0.833705 0.333201 0.000000
C157  C     C_3   0.137511 0.818210 0.314108 0.000000
C158  C     C_R   0.083821 0.796192 0.349683 0.000000
N29   N     N_R   0.119577 0.785693 0.378363 0.000000
C159  C     C_R   0.107488 0.736050 0.364294 0.000000
C160  C     C_R   0.130454 0.704095 0.379263 0.000000
C161  C     C_R   0.110107 0.654845 0.362360 0.000000
C162  C     C_R   0.066894 0.637362 0.330630 0.000000
C163  C     C_R   0.044539 0.669473 0.315138 0.000000
C164  C     C_R   0.065711 0.718535 0.331950 0.000000
N30   N     N_R   0.048184 0.755265 0.322127 0.000000
C165  C     C_2   0.044608 0.585123 0.314200 0.000000
O29   O     O_2   0.063841 0.557188 0.328657 0.000000
O30   O     O_2   0.002395 0.567809 0.283617 0.000000
H155  H     H_    0.133505 0.885467 0.392854 0.000000
H156  H     H_    0.136580 0.908023 0.352894 0.000000
H157  H     H_    0.080824 0.901060 0.363296 0.000000
H158  H     H_    0.066713 0.834968 0.309877 0.000000
H159  H     H_    0.123213 0.782910 0.288651 0.000000
H160  H     H_    0.150965 0.846149 0.303135 0.000000
H161  H     H_    0.167815 0.810492 0.335013 0.000000
H162  H     H_    0.162847 0.715815 0.404363 0.000000
H163  H     H_    0.128082 0.630368 0.374949 0.000000
H164  H     H_    0.010984 0.656279 0.290839 0.000000
H165  H     H_    0.987084 0.533774 0.274247 0.000000
C166  C     C_3   0.965535 0.570175 0.723364 0.000000
C167  C     C_3   0.966689 0.624307 0.733247 0.000000
C168  C     C_3   0.963711 0.647207 0.774980 0.000000
C169  C     C_R   0.008142 0.650034 0.725462 0.000000
N31   N     N_R   0.057335 0.647049 0.738033 0.000000
C170  C     C_R   0.076137 0.671534 0.718093 0.000000
C171  C     C_R   0.124309 0.686040 0.722431 0.000000
C172  C     C_R   0.136119 0.712905 0.700538 0.000000
C173  C     C_R   0.100297 0.727805 0.676332 0.000000
C174  C     C_R   0.052347 0.715950 0.674478 0.000000
C175  C     C_R   0.040815 0.687514 0.695192 0.000000
N32   N     N_R   0.997470 0.676504 0.700370 0.000000
C176  C     C_2   0.113747 0.758330 0.654680 0.000000
O31   O     O_2   0.155977 0.768346 0.656235 0.000000
O32   O     O_2   0.079663 0.775393 0.632940 0.000000
H166  H     H_    0.998048 0.564536 0.743884 0.000000
H167  H     H_    0.932580 0.553060 0.727407 0.000000
H168  H     H_    0.963642 0.552809 0.691401 0.000000
H169  H     H_    0.932907 0.627953 0.712820 0.000000
H170  H     H_    0.986264 0.684514 0.789928 0.000000
H171  H     H_    0.925362 0.648439 0.772681 0.000000
H172  H     H_    0.973911 0.623158 0.791818 0.000000
H173  H     H_    0.153386 0.678329 0.743079 0.000000
H174  H     H_    0.173976 0.723486 0.703752 0.000000
H175  H     H_    0.025246 0.731728 0.659937 0.000000
H176  H     H_    0.088849 0.795401 0.618768 0.000000
C177  C     C_3   0.624111 0.667568 0.507058 0.000000
C178  C     C_3   0.601844 0.685427 0.539304 0.000000
C179  C     C_3   0.550084 0.685280 0.518045 0.000000
C180  C     C_R   0.609884 0.656628 0.567493 0.000000
N33   N     N_R   0.574143 0.642954 0.582090 0.000000
C181  C     C_R   0.598383 0.625180 0.609813 0.000000
C182  C     C_R   0.581061 0.606503 0.634411 0.000000
C183  C     C_R   0.613409 0.599646 0.666212 0.000000
C184  C     C_R   0.662810 0.609823 0.672528 0.000000
C185  C     C_R   0.679338 0.626442 0.646306 0.000000
C186  C     C_R   0.646280 0.632151 0.614412 0.000000
N34   N     N_R   0.655185 0.648297 0.586310 0.000000
C187  C     C_2   0.697004 0.600555 0.705489 0.000000
O33   O     O_2   0.682584 0.589267 0.730152 0.000000
O34   O     O_2   0.744180 0.603208 0.708113 0.000000
H177  H     H_    0.600621 0.633635 0.483570 0.000000
H178  H     H_    0.630380 0.695886 0.494068 0.000000
H179  H     H_    0.657984 0.658959 0.521030 0.000000
H180  H     H_    0.617596 0.724316 0.556781 0.000000
H181  H     H_    0.544188 0.722986 0.527952 0.000000
H182  H     H_    0.543837 0.676356 0.485384 0.000000
H183  H     H_    0.525245 0.659382 0.523101 0.000000
H184  H     H_    0.543760 0.600273 0.631626 0.000000
H185  H     H_    0.599480 0.586861 0.686307 0.000000
H186  H     H_    0.717153 0.631992 0.649343 0.000000
H187  H     H_    0.766501 0.596906 0.729755 0.000000
C188  C     C_3   0.329309 0.650123 0.507780 0.000000
C189  C     C_3   0.379163 0.649386 0.503954 0.000000
C190  C     C_3   0.378262 0.646378 0.462035 0.000000
C191  C     C_R   0.415186 0.693257 0.535178 0.000000
N35   N     N_R   0.406427 0.740912 0.544025 0.000000
C192  C     C_R   0.451933 0.767435 0.564266 0.000000
C193  C     C_R   0.465740 0.817180 0.580555 0.000000
C194  C     C_R   0.512806 0.838677 0.603637 0.000000
C195  C     C_R   0.545429 0.810220 0.612708 0.000000
C196  C     C_R   0.531663 0.759517 0.596110 0.000000
C197  C     C_R   0.484764 0.738583 0.570438 0.000000
N36   N     N_R   0.463383 0.690546 0.552351 0.000000
C198  C     C_2   0.591556 0.835331 0.644211 0.000000
O35   O     O_2   0.611759 0.874730 0.646188 0.000000
O36   O     O_2   0.606110 0.820414 0.675484 0.000000
H188  H     H_    0.332637 0.656267 0.539535 0.000000
H189  H     H_    0.315002 0.680042 0.499565 0.000000
H190  H     H_    0.304531 0.614580 0.487873 0.000000
H191  H     H_    0.390434 0.616401 0.507607 0.000000
H192  H     H_    0.405795 0.676974 0.464656 0.000000
H193  H     H_    0.387065 0.611478 0.446196 0.000000
H194  H     H_    0.341439 0.646708 0.443720 0.000000
H195  H     H_    0.440292 0.839739 0.578793 0.000000
H196  H     H_    0.522567 0.878071 0.617928 0.000000
H197  H     H_    0.557688 0.737372 0.601389 0.000000
H198  H     H_    0.631878 0.841183 0.699659 0.000000
C199  C     C_3   0.464445 0.289018 0.093760 0.000000
C200  C     C_3   0.475385 0.263841 0.055631 0.000000
C201  C     C_3   0.494343 0.305825 0.045419 0.000000
C202  C     C_R   0.508229 0.228034 0.062057 0.000000
N37   N     N_R   0.551976 0.234481 0.055065 0.000000
C203  C     C_R   0.584312 0.238004 0.090134 0.000000
C204  C     C_R   0.634129 0.249535 0.101840 0.000000
C205  C     C_R   0.660486 0.253662 0.140324 0.000000
C206  C     C_R   0.637010 0.245537 0.166447 0.000000
C207  C     C_R   0.586731 0.231222 0.152944 0.000000
C208  C     C_R   0.561110 0.227667 0.114597 0.000000
N38   N     N_R   0.512552 0.215314 0.095899 0.000000
C209  C     C_2   0.666307 0.250665 0.207480 0.000000
O37   O     O_2   0.709386 0.249467 0.214561 0.000000
O38   O     O_2   0.647104 0.258047 0.237831 0.000000
H199  H     H_    0.497738 0.314431 0.116640 0.000000
H200  H     H_    0.435804 0.310338 0.088388 0.000000
H201  H     H_    0.451843 0.261474 0.104433 0.000000
H202  H     H_    0.443088 0.244953 0.030048 0.000000
H203  H     H_    0.529554 0.326503 0.067458 0.000000
H204  H     H_    0.492714 0.293132 0.013778 0.000000
H205  H     H_    0.469696 0.332051 0.047752 0.000000
H206  H     H_    0.652943 0.257319 0.082625 0.000000
H207  H     H_    0.699654 0.263163 0.149630 0.000000
H208  H     H_    0.568323 0.225309 0.172613 0.000000
H209  H     H_    0.614489 0.263446 0.235195 0.000000
C210  C     C_3   0.670286 0.154128 0.050223 0.000000
C211  C     C_3   0.627029 0.118127 0.046159 0.000000
C212  C     C_3   0.610030 0.131671 0.082315 0.000000
C213  C     C_R   0.585433 0.105024 0.007931 0.000000
N39   N     N_R   0.560670 0.057503 0.990806 0.000000
C214  C     C_R   0.525974 0.056772 0.958338 0.000000
C215  C     C_R   0.485865 0.020337 0.936021 0.000000
C216  C     C_R   0.449537 0.026871 0.907011 0.000000
C217  C     C_R   0.452819 0.070846 0.901419 0.000000
C218  C     C_R   0.492114 0.108988 0.926513 0.000000
C219  C     C_R   0.528714 0.101814 0.955690 0.000000
N40   N     N_R   0.565249 0.135111 0.987863 0.000000
C220  C     C_2   0.412745 0.076688 0.870347 0.000000
O39   O     O_2   0.379793 0.041927 0.848189 0.000000
O40   O     O_2   0.411879 0.119909 0.865726 0.000000
H210  H     H_    0.657938 0.185731 0.044487 0.000000
H211  H     H_    0.697322 0.165920 0.080803 0.000000
H212  H     H_    0.687999 0.136233 0.027942 0.000000
H213  H     H_    0.640087 0.084175 0.045734 0.000000
H214  H     H_    0.638744 0.157469 0.109356 0.000000
H215  H     H_    0.576070 0.144713 0.074777 0.000000
H216  H     H_    0.601931 0.098503 0.088679 0.000000
H217  H     H_    0.479973 0.988492 0.943176 0.000000
H218  H     H_    0.418000 0.997658 0.889894 0.000000
H219  H     H_    0.493244 0.142736 0.922597 0.000000
H220  H     H_    0.385458 0.122614 0.844631 0.000000
C221  C     C_3   0.560372 0.167860 0.880733 0.000000
C222  C     C_3   0.573591 0.215589 0.916287 0.000000
C223  C     C_3   0.609498 0.248575 0.910628 0.000000
C224  C     C_R   0.535135 0.240169 0.929112 0.000000
N41   N     N_R   0.501368 0.258660 0.906433 0.000000
C225  C     C_R   0.460862 0.244286 0.914080 0.000000
C226  C     C_R   0.414385 0.233119 0.887900 0.000000
C227  C     C_R   0.377309 0.211441 0.897215 0.000000
C228  C     C_R   0.387687 0.195221 0.929391 0.000000
C229  C     C_R   0.435762 0.201499 0.952775 0.000000
C230  C     C_R   0.471832 0.226393 0.944582 0.000000
N42   N     N_R   0.520057 0.226801 0.956888 0.000000
C231  C     C_2   0.347970 0.165250 0.934021 0.000000
O41   O     O_2   0.306184 0.169754 0.921292 0.000000
O42   O     O_2   0.356878 0.130410 0.949731 0.000000
H221  H     H_    0.556544 0.174981 0.852604 0.000000
H222  H     H_    0.590827 0.148317 0.884949 0.000000
H223  H     H_    0.528078 0.143570 0.878658 0.000000
H224  H     H_    0.589186 0.204210 0.941072 0.000000
H225  H     H_    0.624502 0.280136 0.938999 0.000000
H226  H     H_    0.637995 0.228916 0.903219 0.000000
H227  H     H_    0.590096 0.258004 0.884886 0.000000
H228  H     H_    0.406958 0.239778 0.859929 0.000000
H229  H     H_    0.340549 0.203334 0.876941 0.000000
H230  H     H_    0.445177 0.184551 0.974812 0.000000
H231  H     H_    0.330463 0.110087 0.951962 0.000000
C232  C     C_3   0.581623 0.332993 0.014597 0.000000
C233  C     C_3   0.632377 0.342861 0.041218 0.000000
C234  C     C_3   0.633038 0.348797 0.083646 0.000000
C235  C     C_R   0.655563 0.302612 0.023375 0.000000
N43   N     N_R   0.637481 0.252852 0.011763 0.000000
C236  C     C_R   0.669348 0.232610 0.994058 0.000000
C237  C     C_R   0.666105 0.183665 0.973128 0.000000
C238  C     C_R   0.694193 0.170461 0.948416 0.000000
C239  C     C_R   0.723079 0.206089 0.942811 0.000000
C240  C     C_R   0.726396 0.255006 0.964339 0.000000
C241  C     C_R   0.700802 0.267777 0.991299 0.000000
N44   N     N_R   0.693688 0.312863 0.010286 0.000000
C242  C     C_2   0.746467 0.192136 0.911427 0.000000
O43   O     O_2   0.745089 0.149108 0.893450 0.000000
O44   O     O_2   0.768134 0.226607 0.901305 0.000000
H232  H     H_    0.565072 0.298317 0.014693 0.000000
H233  H     H_    0.563163 0.362884 0.026145 0.000000
H234  H     H_    0.581391 0.327529 0.983715 0.000000
H235  H     H_    0.652568 0.377159 0.042314 0.000000
H236  H     H_    0.666075 0.339559 0.099825 0.000000
H237  H     H_    0.630678 0.386858 0.099905 0.000000
H238  H     H_    0.602679 0.323883 0.083272 0.000000
H239  H     H_    0.639431 0.155704 0.972776 0.000000
H240  H     H_    0.690049 0.132159 0.931019 0.000000
H241  H     H_    0.747868 0.281791 0.958832 0.000000
H242  H     H_    0.782047 0.217022 0.879710 0.000000
C243  C     C_3   0.356546 0.066399 0.099565 0.000000
C244  C     C_3   0.354469 0.116195 0.127739 0.000000
C245  C     C_3   0.395914 0.129790 0.164932 0.000000
C246  C     C_R   0.358264 0.155835 0.110941 0.000000
N45   N     N_R   0.392216 0.165508 0.092956 0.000000
C247  C     C_R   0.371646 0.195483 0.074982 0.000000
C248  C     C_R   0.374519 0.203479 0.041228 0.000000
C249  C     C_R   0.354055 0.241171 0.032806 0.000000
C250  C     C_R   0.333739 0.270094 0.059588 0.000000
C251  C     C_R   0.320357 0.251800 0.085913 0.000000
C252  C     C_R   0.335039 0.210064 0.088296 0.000000
N46   N     N_R   0.322802 0.183119 0.108232 0.000000
C253  C     C_2   0.324298 0.318163 0.059742 0.000000
O45   O     O_2   0.322275 0.329708 0.030602 0.000000
O46   O     O_2   0.316143 0.349302 0.092019 0.000000
H243  H     H_    0.392910 0.066872 0.096130 0.000000
H244  H     H_    0.349627 0.038618 0.112887 0.000000
H245  H     H_    0.329418 0.055053 0.069400 0.000000
H246  H     H_    0.320147 0.113585 0.135120 0.000000
H247  H     H_    0.426773 0.133120 0.154252 0.000000
H248  H     H_    0.396099 0.165692 0.186145 0.000000
H249  H     H_    0.395978 0.100958 0.178143 0.000000
H250  H     H_    0.392360 0.182149 0.022198 0.000000
H251  H     H_    0.358444 0.250473 0.007803 0.000000
H252  H     H_    0.298285 0.268974 0.102991 0.000000
H253  H     H_    0.309203 0.380690 0.092024 0.000000
C254  C     C_3   0.516231 0.312692 0.199545 0.000000
C255  C     C_3   0.470166 0.289101 0.203418 0.000000
C256  C     C_3   0.427032 0.285310 0.169178 0.000000
C257  C     C_R   0.475145 0.240133 0.205314 0.000000
N47   N     N_R   0.489576 0.204830 0.177725 0.000000
C258  C     C_R   0.509441 0.179277 0.199847 0.000000
C259  C     C_R   0.541623 0.149270 0.192965 0.000000
C260  C     C_R   0.554935 0.123960 0.218523 0.000000
C261  C     C_R   0.531195 0.124651 0.246591 0.000000
C262  C     C_R   0.499642 0.156519 0.252999 0.000000
C263  C     C_R   0.496936 0.190028 0.233803 0.000000
N48   N     N_R   0.478952 0.231932 0.240660 0.000000
C264  C     C_2   0.541832 0.093747 0.270884 0.000000
O47   O     O_2   0.566685 0.063359 0.263121 0.000000
O48   O     O_2   0.525601 0.099770 0.302622 0.000000
H254  H     H_    0.520350 0.291540 0.170445 0.000000
H255  H     H_    0.514950 0.350934 0.201687 0.000000
H256  H     H_    0.548042 0.312401 0.223944 0.000000
H257  H     H_    0.464806 0.312085 0.231264 0.000000
H258  H     H_    0.394470 0.285881 0.178018 0.000000
H259  H     H_    0.432115 0.315902 0.158426 0.000000
H260  H     H_    0.422003 0.249367 0.146685 0.000000
H261  H     H_    0.556543 0.145432 0.168624 0.000000
H262  H     H_    0.580707 0.100524 0.213895 0.000000
H263  H     H_    0.480360 0.156402 0.274034 0.000000
H264  H     H_    0.533495 0.079999 0.319005 0.000000
C265  C     C_3   0.408302 0.054278 0.021046 0.000000
C266  C     C_3   0.458996 0.072033 0.021372 0.000000
C267  C     C_3   0.460910 0.118868 0.014340 0.000000
C268  C     C_R   0.496757 0.077430 0.059174 0.000000
N49   N     N_R   0.486781 0.097774 0.094809 0.000000
C269  C     C_R   0.495342 0.062622 0.111264 0.000000
C270  C     C_R   0.480288 0.053630 0.141159 0.000000
C271  C     C_R   0.490012 0.013249 0.150819 0.000000
C272  C     C_R   0.512089 0.979982 0.129236 0.000000
C273  C     C_R   0.524028 0.987091 0.097415 0.000000
C274  C     C_R   0.516457 0.028954 0.089721 0.000000
N50   N     N_R   0.521216 0.039164 0.057790 0.000000
C275  C     C_2   0.521389 0.936804 0.139342 0.000000
O49   O     O_2   0.510324 0.930299 0.167174 0.000000
O50   O     O_2   0.542803 0.904439 0.118335 0.000000
H265  H     H_    0.395208 0.084155 0.039711 0.000000
H266  H     H_    0.383210 0.041230 0.989590 0.000000
H267  H     H_    0.408079 0.023532 0.032072 0.000000
H268  H     H_    0.465196 0.043061 0.997590 0.000000
H269  H     H_    0.498798 0.134675 0.019548 0.000000
H270  H     H_    0.437807 0.111849 0.983200 0.000000
H271  H     H_    0.447704 0.143562 0.036658 0.000000
H272  H     H_    0.461998 0.076810 0.158052 0.000000
H273  H     H_    0.479189 0.007693 0.175148 0.000000
H274  H     H_    0.538078 0.959943 0.078334 0.000000
H275  H     H_    0.549442 0.876624 0.125759 0.000000
C276  C     C_3   0.562048 0.876739 0.884328 0.000000
C277  C     C_3   0.542225 0.916741 0.908621 0.000000
C278  C     C_3   0.506501 0.932177 0.878819 0.000000
C279  C     C_R   0.521337 0.902615 0.937961 0.000000
N51   N     N_R   0.498816 0.855248 0.930628 0.000000
C280  C     C_R   0.478201 0.862675 0.959984 0.000000
C281  C     C_R   0.451482 0.828655 0.967437 0.000000
C282  C     C_R   0.430206 0.843256 0.997283 0.000000
C283  C     C_R   0.433050 0.892586 0.016989 0.000000
C284  C     C_R   0.461195 0.926713 0.009112 0.000000
C285  C     C_R   0.487051 0.910445 0.983162 0.000000
N52   N     N_R   0.517930 0.937012 0.972870 0.000000
C286  C     C_2   0.405345 0.908079 0.045056 0.000000
O51   O     O_2   0.381987 0.877715 0.052679 0.000000
O52   O     O_2   0.405309 0.955742 0.062420 0.000000
H276  H     H_    0.576693 0.855538 0.902404 0.000000
H277  H     H_    0.534890 0.851384 0.856537 0.000000
H278  H     H_    0.590266 0.894083 0.875372 0.000000
H279  H     H_    0.571872 0.948788 0.926231 0.000000
H280  H     H_    0.471660 0.931003 0.884901 0.000000
H281  H     H_    0.522142 0.969443 0.881618 0.000000
H282  H     H_    0.499941 0.908524 0.847071 0.000000
H283  H     H_    0.445533 0.791840 0.948591 0.000000
H284  H     H_    0.408724 0.815959 0.003026 0.000000
H285  H     H_    0.460067 0.964540 0.020671 0.000000
H286  H     H_    0.387109 0.965636 0.080932 0.000000
C287  C     C_3   0.654078 0.921906 0.961267 0.000000
C288  C     C_3   0.673882 0.969106 0.994894 0.000000
C289  C     C_3   0.660231 0.011710 0.983208 0.000000
C290  C     C_R   0.655979 0.961925 0.026256 0.000000
N53   N     N_R   0.625991 0.989340 0.043359 0.000000
C291  C     C_R   0.636184 0.983068 0.079100 0.000000
C292  C     C_R   0.628509 0.011641 0.113536 0.000000
C293  C     C_R   0.641609 0.999245 0.147429 0.000000
C294  C     C_R   0.661893 0.958424 0.146351 0.000000
C295  C     C_R   0.671985 0.931853 0.111988 0.000000
C296  C     C_R   0.663356 0.947870 0.079976 0.000000
N54   N     N_R   0.677638 0.933466 0.046579 0.000000
C297  C     C_2   0.675605 0.945365 0.182493 0.000000
O53   O     O_2   0.662591 0.965489 0.211331 0.000000
O54   O     O_2   0.703924 0.912262 0.184536 0.000000
H287  H     H_    0.619708 0.906523 0.963986 0.000000
H288  H     H_    0.650297 0.926585 0.932206 0.000000
H289  H     H_    0.680144 0.898535 0.966712 0.000000
H290  H     H_    0.714058 0.975271 0.006257 0.000000
H291  H     H_    0.682181 0.045972 0.007703 0.000000
H292  H     H_    0.668857 0.010325 0.955455 0.000000
H293  H     H_    0.621315 0.010550 0.977817 0.000000
H294  H     H_    0.613537 0.043656 0.114950 0.000000
H295  H     H_    0.635323 0.021553 0.174541 0.000000
H296  H     H_    0.687221 0.900298 0.111323 0.000000
H297  H     H_    0.713554 0.904300 0.208606 0.000000
C298  C     C_3   0.458873 0.441610 0.820709 0.000000
C299  C     C_3   0.472101 0.418973 0.852602 0.000000
C300  C     C_3   0.481005 0.455524 0.894946 0.000000
C301  C     C_R   0.435896 0.372771 0.843246 0.000000
N55   N     N_R   0.385611 0.369713 0.828944 0.000000
C302  C     C_R   0.369498 0.345490 0.849858 0.000000
C303  C     C_R   0.322753 0.331792 0.848774 0.000000
C304  C     C_R   0.316555 0.319501 0.880569 0.000000
C305  C     C_R   0.357068 0.322626 0.912264 0.000000
C306  C     C_R   0.403181 0.330687 0.909341 0.000000
C307  C     C_R   0.407255 0.334860 0.874506 0.000000
N56   N     N_R   0.448858 0.344697 0.866717 0.000000
C308  C     C_2   0.352054 0.315798 0.948515 0.000000
O55   O     O_2   0.312129 0.301696 0.950003 0.000000
O56   O     O_2   0.392265 0.324882 0.980231 0.000000
H298  H     H_    0.451467 0.478501 0.832561 0.000000
H299  H     H_    0.489519 0.443963 0.808650 0.000000
H300  H     H_    0.426520 0.418253 0.796019 0.000000
H301  H     H_    0.508466 0.410903 0.854590 0.000000
H302  H     H_    0.519804 0.460869 0.912354 0.000000
H303  H     H_    0.474690 0.492090 0.895551 0.000000
H304  H     H_    0.458458 0.441028 0.910083 0.000000
H305  H     H_    0.291959 0.331872 0.824758 0.000000
H306  H     H_    0.280292 0.311016 0.881854 0.000000
H307  H     H_    0.435045 0.332568 0.933288 0.000000
H308  H     H_    0.390535 0.321402 0.004895 0.000000
C309  C     C_3   0.498622 0.341164 0.786806 0.000000
C310  C     C_3   0.498633 0.291337 0.761468 0.000000
C311  C     C_3   0.548182 0.286920 0.757053 0.000000
C312  C     C_R   0.474480 0.253688 0.773184 0.000000
N57   N     N_R   0.486013 0.249400 0.811006 0.000000
C313  C     C_R   0.467339 0.200363 0.799734 0.000000
C314  C     C_R   0.466122 0.170796 0.821633 0.000000
C315  C     C_R   0.457957 0.120541 0.802285 0.000000
C316  C     C_R   0.449244 0.100203 0.761261 0.000000
C317  C     C_R   0.440972 0.129685 0.738883 0.000000
C318  C     C_R   0.446672 0.178868 0.759129 0.000000
N58   N     N_R   0.445519 0.212397 0.742280 0.000000
C319  C     C_2   0.452107 0.049025 0.742608 0.000000
O57   O     O_2   0.451472 0.021206 0.760935 0.000000
O58   O     O_2   0.459680 0.033666 0.706626 0.000000
H309  H     H_    0.515058 0.343414 0.818060 0.000000
H310  H     H_    0.518680 0.369128 0.779417 0.000000
H311  H     H_    0.460344 0.344324 0.780193 0.000000
H312  H     H_    0.476673 0.283967 0.730871 0.000000
H313  H     H_    0.563699 0.261119 0.770476 0.000000
H314  H     H_    0.544393 0.274260 0.724567 0.000000
H315  H     H_    0.572818 0.323171 0.770069 0.000000
H316  H     H_    0.475000 0.184274 0.853086 0.000000
H317  H     H_    0.463191 0.097573 0.820071 0.000000
H318  H     H_    0.434506 0.115763 0.706781 0.000000
H319  H     H_    0.464379 0.000710 0.695381 0.000000
C320  C     C_3   0.744624 0.538919 0.023350 0.000000
C321  C     C_3   0.766196 0.493886 0.020500 0.000000
C322  C     C_3   0.813923 0.501109 0.014660 0.000000
C323  C     C_R   0.773859 0.482808 0.057378 0.000000
N59   N     N_R   0.796876 0.517471 0.095865 0.000000
C324  C     C_R   0.774352 0.499359 0.117471 0.000000
C325  C     C_R   0.770606 0.522394 0.155112 0.000000
C326  C     C_R   0.751299 0.494252 0.173017 0.000000
C327  C     C_R   0.737688 0.443960 0.153700 0.000000
C328  C     C_R   0.734307 0.423159 0.113346 0.000000
C329  C     C_R   0.747915 0.453094 0.094707 0.000000
N60   N     N_R   0.746061 0.441182 0.055696 0.000000
C330  C     C_2   0.729304 0.413607 0.176894 0.000000
O59   O     O_2   0.721554 0.431760 0.208793 0.000000
O60   O     O_2   0.734252 0.366730 0.164970 0.000000
H320  H     H_    0.732170 0.541419 0.992978 0.000000
H321  H     H_    0.713186 0.536415 0.034561 0.000000
H322  H     H_    0.772425 0.571776 0.043794 0.000000
H323  H     H_    0.739921 0.463226 0.995791 0.000000
H324  H     H_    0.811143 0.513642 0.988995 0.000000
H325  H     H_    0.837510 0.527230 0.043773 0.000000
H326  H     H_    0.828351 0.467607 0.010800 0.000000
H327  H     H_    0.784060 0.560615 0.172072 0.000000
H328  H     H_    0.751867 0.511457 0.203824 0.000000
H329  H     H_    0.725535 0.384423 0.097591 0.000000
H330  H     H_    0.731456 0.348016 0.181784 0.000000
C331  C     C_3   0.825690 0.385411 0.078574 0.000000
C332  C     C_3   0.836924 0.347246 0.046147 0.000000
C333  C     C_3   0.815590 0.297170 0.044755 0.000000
C334  C     C_R   0.824115 0.356842 0.007207 0.000000
N61   N     N_R   0.780199 0.366735 0.988553 0.000000
C335  C     C_R   0.789877 0.380930 0.959790 0.000000
C336  C     C_R   0.761319 0.402611 0.937341 0.000000
C337  C     C_R   0.779855 0.424545 0.915123 0.000000
C338  C     C_R   0.828665 0.428860 0.918972 0.000000
C339  C     C_R   0.857915 0.409445 0.944217 0.000000
C340  C     C_R   0.837221 0.382496 0.962233 0.000000
N62   N     N_R   0.860160 0.366363 0.991346 0.000000
C341  C     C_2   0.849661 0.457077 0.898757 0.000000
O61   O     O_2   0.823787 0.475220 0.877707 0.000000
O62   O     O_2   0.897588 0.463753 0.903763 0.000000
H331  H     H_    0.786333 0.376439 0.071748 0.000000
H332  H     H_    0.843566 0.383310 0.108421 0.000000
H333  H     H_    0.837422 0.422116 0.078292 0.000000
H334  H     H_    0.876084 0.349328 0.054758 0.000000
H335  H     H_    0.810088 0.268092 0.015509 0.000000
H336  H     H_    0.841881 0.288379 0.068253 0.000000
H337  H     H_    0.781424 0.297142 0.052249 0.000000
H338  H     H_    0.726346 0.406074 0.939725 0.000000
H339  H     H_    0.756789 0.441706 0.897592 0.000000
H340  H     H_    0.896038 0.416302 0.949860 0.000000
H341  H     H_    0.911431 0.483653 0.891486 0.000000
C342  C     C_3   0.682653 0.305607 0.884944 0.000000
C343  C     C_3   0.648707 0.341188 0.884527 0.000000
C344  C     C_3   0.611404 0.324517 0.844269 0.000000
C345  C     C_R   0.626319 0.351469 0.917747 0.000000
N63   N     N_R   0.576239 0.350327 0.909431 0.000000
C346  C     C_R   0.576124 0.385632 0.943564 0.000000
C347  C     C_R   0.536663 0.399338 0.954252 0.000000
C348  C     C_R   0.544172 0.435915 0.991103 0.000000
C349  C     C_R   0.590968 0.457138 0.017628 0.000000
C350  C     C_R   0.630200 0.440546 0.007557 0.000000
C351  C     C_R   0.621847 0.404183 0.970831 0.000000
N64   N     N_R   0.654547 0.380517 0.957446 0.000000
C352  C     C_2   0.598948 0.495717 0.056871 0.000000
O63   O     O_2   0.564547 0.510352 0.066117 0.000000
O64   O     O_2   0.644337 0.515072 0.082926 0.000000
H342  H     H_    0.698792 0.307826 0.916209 0.000000
H343  H     H_    0.662979 0.267940 0.865030 0.000000
H344  H     H_    0.711796 0.315469 0.873128 0.000000
H345  H     H_    0.668495 0.376129 0.886421 0.000000
H346  H     H_    0.595813 0.356399 0.841374 0.000000
H347  H     H_    0.630753 0.313038 0.821852 0.000000
H348  H     H_    0.583065 0.293842 0.840153 0.000000
H349  H     H_    0.500595 0.382607 0.934873 0.000000
H350  H     H_    0.512965 0.447286 0.999017 0.000000
H351  H     H_    0.666339 0.456045 0.027887 0.000000
H352  H     H_    0.649584 0.540399 0.108780 0.000000
C353  C     C_3   0.528553 0.689338 0.814022 0.000000
C354  C     C_3   0.487349 0.693033 0.781641 0.000000
C355  C     C_3   0.448836 0.647103 0.762367 0.000000
C356  C     C_R   0.468136 0.740086 0.793108 0.000000
N65   N     N_R   0.475745 0.772858 0.832347 0.000000
C357  C     C_R   0.447890 0.804793 0.824730 0.000000
C358  C     C_R   0.425999 0.832713 0.849831 0.000000
C359  C     C_R   0.397988 0.862794 0.836612 0.000000
C360  C     C_R   0.392728 0.864318 0.798678 0.000000
C361  C     C_R   0.405458 0.827726 0.771114 0.000000
C362  C     C_R   0.431033 0.796668 0.784770 0.000000
N66   N     N_R   0.439291 0.753823 0.763240 0.000000
C363  C     C_2   0.373139 0.903791 0.788093 0.000000
O65   O     O_2   0.347041 0.925078 0.805488 0.000000
O66   O     O_2   0.389711 0.921265 0.763494 0.000000
H353  H     H_    0.528356 0.713052 0.843755 0.000000
H354  H     H_    0.527819 0.651303 0.812441 0.000000
H355  H     H_    0.561692 0.700258 0.807244 0.000000
H356  H     H_    0.503286 0.691335 0.757994 0.000000
H357  H     H_    0.464421 0.613890 0.760101 0.000000
H358  H     H_    0.423052 0.649156 0.779138 0.000000
H359  H     H_    0.430887 0.644174 0.731314 0.000000
H360  H     H_    0.426903 0.828925 0.877767 0.000000
H361  H     H_    0.383167 0.887203 0.857148 0.000000
H362  H     H_    0.391899 0.820777 0.739590 0.000000
H363  H     H_    0.381331 0.950862 0.760072 0.000000
C364  C     C_3   0.375347 0.719092 0.929500 0.000000
C365  C     C_3   0.364301 0.722755 0.887729 0.000000
C366  C     C_3   0.349241 0.770111 0.886037 0.000000
C367  C     C_R   0.401486 0.707371 0.867581 0.000000
N67   N     N_R   0.451050 0.723564 0.888704 0.000000
C368  C     C_R   0.467801 0.681842 0.878622 0.000000
C369  C     C_R   0.513510 0.674393 0.894800 0.000000
C370  C     C_R   0.524334 0.629506 0.879076 0.000000
C371  C     C_R   0.491072 0.593749 0.845372 0.000000
C372  C     C_R   0.444446 0.601018 0.830122 0.000000
C373  C     C_R   0.432824 0.645005 0.848845 0.000000
N68   N     N_R   0.389709 0.659568 0.840501 0.000000
C374  C     C_2   0.507913 0.551111 0.824115 0.000000
O67   O     O_2   0.546191 0.541966 0.840596 0.000000
O68   O     O_2   0.483058 0.523552 0.785547 0.000000
H364  H     H_    0.414373 0.722289 0.944521 0.000000
H365  H     H_    0.359694 0.746190 0.948532 0.000000
H366  H     H_    0.358591 0.682486 0.926637 0.000000
H367  H     H_    0.331748 0.694544 0.869852 0.000000
H368  H     H_    0.352658 0.775432 0.858575 0.000000
H369  H     H_    0.310584 0.767324 0.884706 0.000000
H370  H     H_    0.370536 0.802336 0.912484 0.000000
H371  H     H_    0.541482 0.701789 0.918916 0.000000
H372  H     H_    0.560764 0.624530 0.891218 0.000000
H373  H     H_    0.419287 0.574215 0.802955 0.000000
H374  H     H_    0.495980 0.496830 0.771680 0.000000
C375  C     C_3   0.823722 0.792658 0.010795 0.000000
C376  C     C_3   0.808325 0.839857 0.026029 0.000000
C377  C     C_3   0.838375 0.880212 0.064307 0.000000
C378  C     C_R   0.806638 0.863998 0.000345 0.000000
N69   N     N_R   0.845403 0.873703 0.988034 0.000000
C379  C     C_R   0.826704 0.896489 0.963329 0.000000
C380  C     C_R   0.848699 0.910117 0.938890 0.000000
C381  C     C_R   0.825383 0.935229 0.916340 0.000000
C382  C     C_R   0.781754 0.947675 0.919941 0.000000
C383  C     C_R   0.760339 0.933602 0.945195 0.000000
C384  C     C_R   0.781994 0.905916 0.966311 0.000000
N70   N     N_R   0.768080 0.886069 0.991993 0.000000
C385  C     C_2   0.758355 0.976561 0.897114 0.000000
O69   O     O_2   0.777613 0.990046 0.875774 0.000000
O70   O     O_2   0.715591 0.988362 0.899538 0.000000
H375  H     H_    0.855628 0.796587 0.000711 0.000000
H376  H     H_    0.829032 0.778210 0.035181 0.000000
H377  H     H_    0.793586 0.767505 0.984236 0.000000
H378  H     H_    0.770233 0.830175 0.021093 0.000000
H379  H     H_    0.818236 0.910055 0.069988 0.000000
H380  H     H_    0.847609 0.867663 0.089255 0.000000
H381  H     H_    0.870073 0.897810 0.060031 0.000000
H382  H     H_    0.883258 0.901166 0.937222 0.000000
H383  H     H_    0.842266 0.946068 0.896844 0.000000
H384  H     H_    0.728743 0.946267 0.948152 0.000000
H385  H     H_    0.700501 0.007520 0.884588 0.000000
C386  C     C_3   0.702557 0.739593 0.076190 0.000000
C387  C     C_3   0.736971 0.753206 0.055342 0.000000
C388  C     C_3   0.709167 0.742780 0.011509 0.000000
C389  C     C_R   0.764354 0.804943 0.079327 0.000000
N71   N     N_R   0.801926 0.813444 0.114937 0.000000
C390  C     C_R   0.802076 0.860201 0.136389 0.000000
C391  C     C_R   0.831098 0.887867 0.174699 0.000000
C392  C     C_R   0.830656 0.937191 0.189642 0.000000
C393  C     C_R   0.805256 0.959075 0.164561 0.000000
C394  C     C_R   0.777376 0.930662 0.125316 0.000000
C395  C     C_R   0.772178 0.880578 0.113141 0.000000
N72   N     N_R   0.747450 0.847261 0.075808 0.000000
C396  C     C_2   0.807939 0.012111 0.179401 0.000000
O71   O     O_2   0.833778 0.037604 0.213516 0.000000
O72   O     O_2   0.781460 0.032843 0.155542 0.000000
H386  H     H_    0.673796 0.761067 0.074584 0.000000
H387  H     H_    0.685669 0.700110 0.061326 0.000000
H388  H     H_    0.722904 0.747383 0.108339 0.000000
H389  H     H_    0.763279 0.729012 0.056466 0.000000
H390  H     H_    0.704308 0.776862 0.006692 0.000000
H391  H     H_    0.729216 0.723109 0.992005 0.000000
H392  H     H_    0.672876 0.719422 0.002849 0.000000
H393  H     H_    0.853228 0.871299 0.192683 0.000000
H394  H     H_    0.852062 0.958857 0.220497 0.000000
H395  H     H_    0.760502 0.947261 0.104431 0.000000
H396  H     H_    0.782984 0.067712 0.165460 0.000000
C397  C     C_3   0.693821 0.782203 0.923074 0.000000
C398  C     C_3   0.649149 0.803352 0.911644 0.000000
C399  C     C_3   0.618570 0.769371 0.870671 0.000000
C400  C     C_R   0.622785 0.807064 0.942083 0.000000
N73   N     N_R   0.573248 0.788093 0.933121 0.000000
C401  C     C_R   0.572057 0.790365 0.970221 0.000000
C402  C     C_R   0.534169 0.771962 0.980323 0.000000
C403  C     C_R   0.540703 0.776804 0.019915 0.000000
C404  C     C_R   0.585238 0.799530 0.049321 0.000000
C405  C     C_R   0.623152 0.817708 0.038668 0.000000
C406  C     C_R   0.615690 0.812049 0.999026 0.000000
N74   N     N_R   0.648761 0.824688 0.983080 0.000000
C407  C     C_2   0.592648 0.801331 0.090786 0.000000
O73   O     O_2   0.560080 0.781803 0.099055 0.000000
O74   O     O_2   0.635540 0.823783 0.119804 0.000000
H397  H     H_    0.683033 0.744147 0.921171 0.000000
H398  H     H_    0.715297 0.783047 0.902580 0.000000
H399  H     H_    0.716742 0.803517 0.954151 0.000000
H400  H     H_    0.660327 0.838848 0.909278 0.000000
H401  H     H_    0.584905 0.782445 0.860623 0.000000
H402  H     H_    0.639008 0.767594 0.849061 0.000000
H403  H     H_    0.610989 0.732835 0.872650 0.000000
H404  H     H_    0.500902 0.750723 0.958120 0.000000
H405  H     H_    0.510880 0.761176 0.027220 0.000000
H406  H     H_    0.658561 0.832873 0.060140 0.000000
H407  H     H_    0.640266 0.824082 0.146839 0.000000
C408  C     C_3   0.180111 0.041489 0.986280 0.000000
C409  C     C_3   0.214068 0.059658 0.029272 0.000000
C410  C     C_3   0.258479 0.090795 0.030683 0.000000
C411  C     C_R   0.190852 0.083219 0.061202 0.000000
N75   N     N_R   0.216769 0.117054 0.100340 0.000000
C412  C     C_R   0.184754 0.115009 0.120041 0.000000
C413  C     C_R   0.191320 0.142585 0.159331 0.000000
C414  C     C_R   0.152916 0.139436 0.174117 0.000000
C415  C     C_R   0.108453 0.109192 0.148986 0.000000
C416  C     C_R   0.102764 0.081892 0.109108 0.000000
C417  C     C_R   0.141772 0.084735 0.095103 0.000000
N76   N     N_R   0.143676 0.062773 0.057240 0.000000
C418  C     C_2   0.067193 0.106402 0.164343 0.000000
O75   O     O_2   0.071868 0.130252 0.199370 0.000000
O76   O     O_2   0.023835 0.077766 0.139751 0.000000
H408  H     H_    0.189062 0.064534 0.969719 0.000000
H409  H     H_    0.184567 0.004403 0.969903 0.000000
H410  H     H_    0.142656 0.041342 0.986151 0.000000
H411  H     H_    0.226361 0.027747 0.035485 0.000000
H412  H     H_    0.278163 0.067664 0.012677 0.000000
H413  H     H_    0.250786 0.120118 0.019119 0.000000
H414  H     H_    0.279820 0.105322 0.061988 0.000000
H415  H     H_    0.225849 0.165869 0.178095 0.000000
H416  H     H_    0.157920 0.161141 0.205218 0.000000
H417  H     H_    0.068635 0.058218 0.089939 0.000000
H418  H     H_    0.996649 0.076253 0.149850 0.000000
C419  C     C_3   0.170400 0.162248 0.005635 0.000000
C420  C     C_3   0.207399 0.204867 0.035851 0.000000
C421  C     C_3   0.215684 0.245179 0.019993 0.000000
C422  C     C_R   0.189802 0.224490 0.069641 0.000000
N77   N     N_R   0.148438 0.244824 0.066901 0.000000
C423  C     C_R   0.151519 0.262176 0.106547 0.000000
C424  C     C_R   0.117441 0.280542 0.122498 0.000000
C425  C     C_R   0.121895 0.286906 0.162289 0.000000
C426  C     C_R   0.161311 0.275781 0.186212 0.000000
C427  C     C_R   0.195345 0.256467 0.169641 0.000000
C428  C     C_R   0.189557 0.249810 0.129920 0.000000
N78   N     N_R   0.215165 0.225839 0.107618 0.000000
C429  C     C_2   0.165623 0.281884 0.228177 0.000000
O77   O     O_2   0.135054 0.297951 0.242706 0.000000
O78   O     O_2   0.203415 0.269787 0.250885 0.000000
H419  H     H_    0.140269 0.178027 0.994037 0.000000
H420  H     H_    0.185004 0.142395 0.981823 0.000000
H421  H     H_    0.158807 0.138420 0.020589 0.000000
H422  H     H_    0.240918 0.192662 0.046170 0.000000
H423  H     H_    0.181162 0.254704 0.007309 0.000000
H424  H     H_    0.235987 0.278616 0.045877 0.000000
H425  H     H_    0.235294 0.234769 0.997628 0.000000
H426  H     H_    0.084660 0.282322 0.102253 0.000000
H427  H     H_    0.093087 0.298273 0.174004 0.000000
H428  H     H_    0.224966 0.245671 0.187171 0.000000
H429  H     H_    0.206154 0.273731 0.278468 0.000000
C430  C     C_3   0.371624 0.148100 0.251759 0.000000
C431  C     C_3   0.328205 0.164949 0.230634 0.000000
C432  C     C_3   0.296184 0.176094 0.257458 0.000000
C433  C     C_R   0.342287 0.209939 0.222236 0.000000
N79   N     N_R   0.309666 0.221226 0.192175 0.000000
C434  C     C_R   0.324721 0.270252 0.205326 0.000000
C435  C     C_R   0.308166 0.301556 0.186291 0.000000
C436  C     C_R   0.330073 0.350365 0.202848 0.000000
C437  C     C_R   0.370509 0.367246 0.236995 0.000000
C438  C     C_R   0.388914 0.334843 0.254213 0.000000
C439  C     C_R   0.364887 0.286719 0.238977 0.000000
N80   N     N_R   0.379028 0.249729 0.250647 0.000000
C440  C     C_2   0.394936 0.418901 0.254063 0.000000
O79   O     O_2   0.381023 0.446863 0.237208 0.000000
O80   O     O_2   0.432285 0.435910 0.288860 0.000000
H430  H     H_    0.368609 0.146647 0.280663 0.000000
H431  H     H_    0.371995 0.110546 0.232859 0.000000
H432  H     H_    0.405645 0.173200 0.257660 0.000000
H433  H     H_    0.307042 0.135082 0.201737 0.000000
H434  H     H_    0.317419 0.203602 0.287542 0.000000
H435  H     H_    0.265826 0.191643 0.244226 0.000000
H436  H     H_    0.281260 0.142060 0.260784 0.000000
H437  H     H_    0.279360 0.289474 0.158713 0.000000
H438  H     H_    0.316092 0.374651 0.187949 0.000000
H439  H     H_    0.422705 0.347161 0.277586 0.000000
H440  H     H_    0.448055 0.469974 0.300135 0.000000
C441  C     C_3   0.405908 0.227282 0.359276 0.000000
C442  C     C_3   0.455726 0.257471 0.385861 0.000000
C443  C     C_3   0.461784 0.264470 0.428843 0.000000
C444  C     C_R   0.494038 0.237287 0.369586 0.000000
N81   N     N_R   0.494401 0.237239 0.332174 0.000000
C445  C     C_R   0.539204 0.227931 0.332399 0.000000
C446  C     C_R   0.568397 0.243388 0.312875 0.000000
C447  C     C_R   0.614476 0.233341 0.318691 0.000000
C448  C     C_R   0.633512 0.213557 0.347463 0.000000
C449  C     C_R   0.607112 0.206997 0.372015 0.000000
C450  C     C_R   0.560510 0.215502 0.364541 0.000000
N82   N     N_R   0.536213 0.226789 0.391413 0.000000
C451  C     C_2   0.683598 0.205638 0.355241 0.000000
O81   O     O_2   0.707483 0.213321 0.334531 0.000000
O82   O     O_2   0.703505 0.189919 0.385280 0.000000
H441  H     H_    0.403504 0.189176 0.358197 0.000000
H442  H     H_    0.377771 0.243106 0.371318 0.000000
H443  H     H_    0.399851 0.227584 0.328479 0.000000
H444  H     H_    0.458784 0.294275 0.385827 0.000000
H445  H     H_    0.500611 0.270176 0.444336 0.000000
H446  H     H_    0.448665 0.297948 0.442316 0.000000
H447  H     H_    0.439750 0.233355 0.431060 0.000000
H448  H     H_    0.557105 0.264603 0.294476 0.000000
H449  H     H_    0.636371 0.243733 0.302180 0.000000
H450  H     H_    0.624298 0.199877 0.398436 0.000000
H451  H     H_    0.736576 0.185074 0.390501 0.000000
C452  C     C_3   0.537165 0.370562 0.299843 0.000000
C453  C     C_3   0.556665 0.385746 0.345009 0.000000
C454  C     C_3   0.581544 0.438366 0.361539 0.000000
C455  C     C_R   0.515376 0.376426 0.360903 0.000000
N83   N     N_R   0.474122 0.340581 0.334967 0.000000
C456  C     C_R   0.441089 0.353411 0.353760 0.000000
C457  C     C_R   0.393862 0.328788 0.342457 0.000000
C458  C     C_R   0.367121 0.341795 0.368237 0.000000
C459  C     C_R   0.388448 0.377305 0.406188 0.000000
C460  C     C_R   0.436468 0.400853 0.417520 0.000000
C461  C     C_R   0.462092 0.389994 0.390637 0.000000
N84   N     N_R   0.510098 0.406164 0.397824 0.000000
C462  C     C_2   0.360395 0.388188 0.434511 0.000000
O83   O     O_2   0.318540 0.366370 0.424224 0.000000
O84   O     O_2   0.380430 0.422146 0.471867 0.000000
H452  H     H_    0.506605 0.388527 0.291109 0.000000
H453  H     H_    0.566298 0.380809 0.288182 0.000000
H454  H     H_    0.525558 0.330424 0.287062 0.000000
H455  H     H_    0.584209 0.364268 0.350468 0.000000
H456  H     H_    0.600682 0.448544 0.393995 0.000000
H457  H     H_    0.609277 0.443620 0.346996 0.000000
H458  H     H_    0.553936 0.460256 0.354847 0.000000
H459  H     H_    0.377851 0.297926 0.315326 0.000000
H460  H     H_    0.330244 0.321871 0.359062 0.000000
H461  H     H_    0.453355 0.426126 0.447035 0.000000
H462  H     H_    0.361731 0.429119 0.490263 0.000000
C463  C     C_3   0.752524 0.646823 0.103376 0.000000
C464  C     C_3   0.801712 0.671392 0.135060 0.000000
C465  C     C_3   0.809760 0.646180 0.164592 0.000000
C466  C     C_R   0.841020 0.670845 0.116042 0.000000
N85   N     N_R   0.855621 0.627860 0.098569 0.000000
C467  C     C_R   0.860395 0.633267 0.064754 0.000000
C468  C     C_R   0.874634 0.603010 0.035727 0.000000
C469  C     C_R   0.862781 0.606982 0.998127 0.000000
C470  C     C_R   0.837501 0.642442 0.991291 0.000000
C471  C     C_R   0.830888 0.677561 0.023782 0.000000
C472  C     C_R   0.847536 0.674661 0.061306 0.000000
N86   N     N_R   0.841715 0.702520 0.095727 0.000000
C473  C     C_2   0.815602 0.642605 0.950415 0.000000
O85   O     O_2   0.783378 0.665330 0.944833 0.000000
O86   O     O_2   0.829342 0.617731 0.918778 0.000000
H463  H     H_    0.745382 0.607229 0.097930 0.000000
H464  H     H_    0.723971 0.662591 0.114800 0.000000
H465  H     H_    0.750890 0.652530 0.074820 0.000000
H466  H     H_    0.799705 0.709560 0.149990 0.000000
H467  H     H_    0.842985 0.666171 0.189626 0.000000
H468  H     H_    0.778410 0.644945 0.176073 0.000000
H469  H     H_    0.813565 0.609116 0.148560 0.000000
H470  H     H_    0.892674 0.576021 0.042477 0.000000
H471  H     H_    0.869495 0.579669 0.973760 0.000000
H472  H     H_    0.809566 0.703529 0.018905 0.000000
H473  H     H_    0.856233 0.601136 0.921320 0.000000
C474  C     C_3   0.021021 0.667276 0.218109 0.000000
C475  C     C_3   0.972479 0.663759 0.188018 0.000000
C476  C     C_3   0.972294 0.626764 0.149151 0.000000
C477  C     C_R   0.932361 0.649770 0.202965 0.000000
N87   N     N_R   0.899570 0.605588 0.181073 0.000000
C478  C     C_R   0.890149 0.592855 0.210656 0.000000
C479  C     C_R   0.870701 0.546621 0.206937 0.000000
C480  C     C_R   0.869096 0.537314 0.240827 0.000000
C481  C     C_R   0.890550 0.573427 0.278487 0.000000
C482  C     C_R   0.913886 0.618626 0.281875 0.000000
C483  C     C_R   0.912321 0.629128 0.247724 0.000000
N88   N     N_R   0.937431 0.668399 0.244188 0.000000
C484  C     C_2   0.891856 0.562481 0.314883 0.000000
O87   O     O_2   0.872673 0.522136 0.311821 0.000000
O88   O     O_2   0.913858 0.596888 0.351822 0.000000
H474  H     H_    0.023704 0.631169 0.220907 0.000000
H475  H     H_    0.051204 0.679191 0.208146 0.000000
H476  H     H_    0.024477 0.693394 0.247867 0.000000
H477  H     H_    0.968820 0.696995 0.181622 0.000000
H478  H     H_    0.937828 0.619442 0.125206 0.000000
H479  H     H_    0.001337 0.642505 0.139914 0.000000
H480  H     H_    0.980885 0.592975 0.153669 0.000000
H481  H     H_    0.859167 0.517004 0.178183 0.000000
H482  H     H_    0.853303 0.500881 0.237562 0.000000
H483  H     H_    0.936032 0.642344 0.310741 0.000000
H484  H     H_    0.914197 0.589452 0.375562 0.000000
C485  C     C_3   0.928789 0.516984 0.999002 0.000000
C486  C     C_3   0.951616 0.515329 0.040313 0.000000
C487  C     C_3   0.989964 0.560591 0.067822 0.000000
C488  C     C_R   0.923245 0.491908 0.060391 0.000000
N89   N     N_R   0.915252 0.519697 0.096181 0.000000
C489  C     C_R   0.928881 0.492709 0.119392 0.000000
C490  C     C_R   0.939405 0.505834 0.160282 0.000000
C491  C     C_R   0.945826 0.470501 0.177245 0.000000
C492  C     C_R   0.944861 0.423248 0.153461 0.000000
C493  C     C_R   0.944130 0.413586 0.114042 0.000000
C494  C     C_R   0.937224 0.449452 0.098043 0.000000
N90   N     N_R   0.934723 0.447133 0.060671 0.000000
C495  C     C_2   0.945173 0.384085 0.170068 0.000000
O89   O     O_2   0.951112 0.393777 0.205944 0.000000
O90   O     O_2   0.937074 0.337067 0.145476 0.000000
H485  H     H_    0.889127 0.505609 0.988737 0.000000
H486  H     H_    0.939973 0.554121 0.999214 0.000000
H487  H     H_    0.944228 0.492433 0.978035 0.000000
H488  H     H_    0.971723 0.487672 0.032738 0.000000
H489  H     H_    0.007586 0.556417 0.096888 0.000000
H490  H     H_    0.018201 0.564414 0.053422 0.000000
H491  H     H_    0.974151 0.593673 0.072154 0.000000
H492  H     H_    0.945815 0.542955 0.179544 0.000000
H493  H     H_    0.950655 0.480010 0.208977 0.000000
H494  H     H_    0.947509 0.378338 0.095985 0.000000
H495  H     H_    0.936780 0.311300 0.156372 0.000000
C496  C     C_3   0.051983 0.410941 0.095895 0.000000
C497  C     C_3   0.052351 0.357763 0.089801 0.000000
C498  C     C_3   0.040145 0.349486 0.125016 0.000000
C499  C     C_R   0.017153 0.321484 0.049965 0.000000
N91   N     N_R   0.968567 0.326132 0.036832 0.000000
C500  C     C_R   0.945710 0.278782 0.017644 0.000000
C501  C     C_R   0.897142 0.261631 0.997562 0.000000
C502  C     C_R   0.880670 0.214448 0.970326 0.000000
C503  C     C_R   0.913901 0.187318 0.959515 0.000000
C504  C     C_R   0.962605 0.203903 0.981757 0.000000
C505  C     C_R   0.978028 0.248464 0.013268 0.000000
N92   N     N_R   0.024766 0.273600 0.032447 0.000000
C506  C     C_2   0.898734 0.146460 0.920574 0.000000
O91   O     O_2   0.855817 0.132193 0.900591 0.000000
O92   O     O_2   0.932278 0.126232 0.905628 0.000000
H496  H     H_    0.015691 0.414208 0.079679 0.000000
H497  H     H_    0.061017 0.432946 0.128460 0.000000
H498  H     H_    0.080497 0.426548 0.086286 0.000000
H499  H     H_    0.089969 0.352839 0.092277 0.000000
H500  H     H_    0.021538 0.311114 0.116447 0.000000
H501  H     H_    0.074014 0.359923 0.150849 0.000000
H502  H     H_    0.016678 0.373507 0.135657 0.000000
H503  H     H_    0.872891 0.285917 0.998314 0.000000
H504  H     H_    0.842689 0.202747 0.952848 0.000000
H505  H     H_    0.988006 0.185512 0.970568 0.000000
H506  H     H_    0.922278 0.100140 0.879532 0.000000
C507  C     C_3   0.900394 0.282742 0.921692 0.000000
C508  C     C_3   0.919720 0.314177 0.902181 0.000000
C509  C     C_3   0.876391 0.328125 0.877929 0.000000
C510  C     C_R   0.960343 0.358103 0.930866 0.000000
N93   N     N_R   0.966354 0.386625 0.971133 0.000000
C511  C     C_R   0.006604 0.420864 0.980008 0.000000
C512  C     C_R   0.036789 0.453234 0.016729 0.000000
C513  C     C_R   0.073550 0.487390 0.017737 0.000000
C514  C     C_R   0.080677 0.487716 0.982155 0.000000
C515  C     C_R   0.055657 0.449255 0.946432 0.000000
C516  C     C_R   0.021522 0.414612 0.947366 0.000000
N94   N     N_R   0.998785 0.371155 0.918513 0.000000
C517  C     C_2   0.114903 0.528073 0.982698 0.000000
O93   O     O_2   0.139956 0.559486 0.014721 0.000000
O94   O     O_2   0.118158 0.531276 0.947874 0.000000
H507  H     H_    0.864804 0.259243 0.901339 0.000000
H508  H     H_    0.924531 0.257525 0.926909 0.000000
H509  H     H_    0.896534 0.307125 0.949573 0.000000
H510  H     H_    0.934599 0.290623 0.880116 0.000000
H511  H     H_    0.885955 0.366392 0.880575 0.000000
H512  H     H_    0.865195 0.303278 0.845923 0.000000
H513  H     H_    0.844725 0.323627 0.888432 0.000000
H514  H     H_    0.030806 0.454916 0.044277 0.000000
H515  H     H_    0.094732 0.515300 0.046433 0.000000
H516  H     H_    0.060198 0.447877 0.918142 0.000000
H517  H     H_    0.140750 0.558122 0.948683 0.000000
C518  C     C_3   0.272730 0.422864 0.855690 0.000000
C519  C     C_3   0.235384 0.428716 0.821435 0.000000
C520  C     C_3   0.243250 0.478798 0.818786 0.000000
C521  C     C_R   0.226614 0.390714 0.781955 0.000000
N95   N     N_R   0.262001 0.373100 0.765076 0.000000
C522  C     C_R   0.234358 0.350080 0.725883 0.000000
C523  C     C_R   0.249719 0.329129 0.693532 0.000000
C524  C     C_R   0.217651 0.313723 0.655062 0.000000
C525  C     C_R   0.170227 0.319854 0.648687 0.000000
C526  C     C_R   0.154144 0.339464 0.681557 0.000000
C527  C     C_R   0.186774 0.354442 0.719973 0.000000
N96   N     N_R   0.179781 0.378803 0.755270 0.000000
C528  C     C_2   0.138394 0.306590 0.606955 0.000000
O95   O     O_2   0.151992 0.285223 0.578794 0.000000
O96   O     O_2   0.094614 0.318747 0.599336 0.000000
H518  H     H_    0.303858 0.414473 0.845626 0.000000
H519  H     H_    0.283711 0.456509 0.883089 0.000000
H520  H     H_    0.256788 0.392423 0.862906 0.000000
H521  H     H_    0.200506 0.422711 0.825848 0.000000
H522  H     H_    0.207645 0.489690 0.811716 0.000000
H523  H     H_    0.267763 0.506458 0.847613 0.000000
H524  H     H_    0.257296 0.476362 0.793575 0.000000
H525  H     H_    0.286447 0.327845 0.696527 0.000000
H526  H     H_    0.231086 0.299030 0.630018 0.000000
H527  H     H_    0.116895 0.341821 0.677195 0.000000
H528  H     H_    0.074296 0.310037 0.571683 0.000000
C529  C     C_3   0.279688 0.452692 0.704594 0.000000
C530  C     C_3   0.331094 0.472268 0.732504 0.000000
C531  C     C_3   0.361742 0.507216 0.721840 0.000000
C532  C     C_R   0.336715 0.491770 0.776182 0.000000
N97   N     N_R   0.337326 0.539938 0.799615 0.000000
C533  C     C_R   0.355239 0.539203 0.837379 0.000000
C534  C     C_R   0.367826 0.577395 0.873591 0.000000
C535  C     C_R   0.383994 0.569051 0.909164 0.000000
C536  C     C_R   0.386767 0.522226 0.908348 0.000000
C537  C     C_R   0.377208 0.484710 0.871683 0.000000
C538  C     C_R   0.362471 0.494199 0.836594 0.000000
N98   N     N_R   0.351328 0.462955 0.798324 0.000000
C539  C     C_2   0.399262 0.512356 0.946058 0.000000
O97   O     O_2   0.412561 0.546108 0.978556 0.000000
O98   O     O_2   0.394536 0.465950 0.944969 0.000000
H529  H     H_    0.275532 0.459255 0.676236 0.000000
H530  H     H_    0.273467 0.413006 0.695289 0.000000
H531  H     H_    0.253147 0.465464 0.719711 0.000000
H532  H     H_    0.345262 0.438624 0.727706 0.000000
H533  H     H_    0.400093 0.507501 0.735988 0.000000
H534  H     H_    0.353650 0.496438 0.688719 0.000000
H535  H     H_    0.357509 0.544654 0.735869 0.000000
H536  H     H_    0.364368 0.613420 0.875152 0.000000
H537  H     H_    0.392908 0.599357 0.937477 0.000000
H538  H     H_    0.381141 0.448987 0.871143 0.000000
H539  H     H_    0.402378 0.459511 0.969801 0.000000
C540  C     C_3   0.323645 0.118325 0.703101 0.000000
C541  C     C_3   0.332613 0.075748 0.672092 0.000000
C542  C     C_3   0.282937 0.042055 0.651323 0.000000
C543  C     C_R   0.352650 0.090554 0.642384 0.000000
N99   N     N_R   0.354171 0.139746 0.648179 0.000000
C544  C     C_R   0.319854 0.136573 0.614199 0.000000
C545  C     C_R   0.296848 0.172705 0.606798 0.000000
C546  C     C_R   0.261227 0.161032 0.569998 0.000000
C547  C     C_R   0.248123 0.113493 0.541865 0.000000
C548  C     C_R   0.270967 0.077347 0.550557 0.000000
C549  C     C_R   0.307525 0.089865 0.586530 0.000000
N100  N     N_R   0.332117 0.059765 0.601509 0.000000
C550  C     C_2   0.209120 0.101256 0.503408 0.000000
O99   O     O_2   0.188349 0.132712 0.495931 0.000000
O100  O     O_2   0.196391 0.055383 0.475984 0.000000
H540  H     H_    0.354167 0.149051 0.714789 0.000000
H541  H     H_    0.289100 0.128035 0.689590 0.000000
H542  H     H_    0.320431 0.107665 0.728707 0.000000
H543  H     H_    0.358437 0.060209 0.689946 0.000000
H544  H     H_    0.285875 0.006630 0.632459 0.000000
H545  H     H_    0.267664 0.036462 0.674401 0.000000
H546  H     H_    0.257491 0.057696 0.632682 0.000000
H547  H     H_    0.305595 0.209269 0.628927 0.000000
H548  H     H_    0.243141 0.189325 0.563848 0.000000
H549  H     H_    0.257763 0.039920 0.531187 0.000000
H550  H     H_    0.171124 0.047590 0.450509 0.000000
C551  C     C_3   0.385787 0.226788 0.596326 0.000000
C552  C     C_3   0.407153 0.181869 0.585452 0.000000
C553  C     C_3   0.408229 0.173537 0.543736 0.000000
C554  C     C_R   0.455455 0.185649 0.615941 0.000000
N101  N     N_R   0.494011 0.168309 0.605246 0.000000
C555  C     C_R   0.524383 0.168746 0.640063 0.000000
C556  C     C_R   0.564654 0.147720 0.644917 0.000000
C557  C     C_R   0.588268 0.145222 0.681493 0.000000
C558  C     C_R   0.569766 0.161075 0.712695 0.000000
C559  C     C_R   0.526804 0.177833 0.706248 0.000000
C560  C     C_R   0.504866 0.183643 0.670125 0.000000
N102  N     N_R   0.460949 0.195360 0.656275 0.000000
C561  C     C_2   0.595405 0.159331 0.752268 0.000000
O101  O     O_2   0.631613 0.141593 0.756692 0.000000
O102  O     O_2   0.580609 0.179097 0.784318 0.000000
H551  H     H_    0.409928 0.258603 0.596877 0.000000
H552  H     H_    0.350284 0.221267 0.573192 0.000000
H553  H     H_    0.380155 0.232864 0.625502 0.000000
H554  H     H_    0.382596 0.149564 0.582739 0.000000
H555  H     H_    0.425809 0.143109 0.535326 0.000000
H556  H     H_    0.370400 0.163137 0.522766 0.000000
H557  H     H_    0.426652 0.206923 0.541920 0.000000
H558  H     H_    0.576837 0.129819 0.620633 0.000000
H559  H     H_    0.620282 0.129343 0.684747 0.000000
H560  H     H_    0.513488 0.187244 0.730514 0.000000
H561  H     H_    0.599614 0.180035 0.810504 0.000000
C562  C     C_3   0.292875 0.227991 0.708144 0.000000
C563  C     C_3   0.329980 0.270080 0.741757 0.000000
C564  C     C_3   0.358740 0.252547 0.773382 0.000000
C565  C     C_R   0.361783 0.295815 0.725581 0.000000
N103  N     N_R   0.386593 0.273551 0.699558 0.000000
C566  C     C_R   0.407433 0.312319 0.693219 0.000000
C567  C     C_R   0.443093 0.313048 0.675290 0.000000
C568  C     C_R   0.463647 0.356132 0.674078 0.000000
C569  C     C_R   0.451562 0.399321 0.693500 0.000000
C570  C     C_R   0.420197 0.399407 0.716125 0.000000
C571  C     C_R   0.396503 0.355041 0.714416 0.000000
N104  N     N_R   0.367257 0.346011 0.735647 0.000000
C572  C     C_2   0.473975 0.444381 0.690554 0.000000
O103  O     O_2   0.510951 0.445801 0.681190 0.000000
O104  O     O_2   0.452350 0.483083 0.695319 0.000000
H562  H     H_    0.312191 0.203974 0.690971 0.000000
H563  H     H_    0.271799 0.207791 0.721119 0.000000
H564  H     H_    0.267644 0.241058 0.687343 0.000000
H565  H     H_    0.310327 0.296565 0.756588 0.000000
H566  H     H_    0.393743 0.278254 0.790755 0.000000
H567  H     H_    0.337499 0.248964 0.793431 0.000000
H568  H     H_    0.365882 0.216687 0.759514 0.000000
H569  H     H_    0.456977 0.281136 0.663654 0.000000
H570  H     H_    0.490054 0.355614 0.658350 0.000000
H571  H     H_    0.417601 0.433668 0.736260 0.000000
H572  H     H_    0.466730 0.512132 0.692355 0.000000
C573  C     C_3   0.050509 0.821030 0.977637 0.000000
C574  C     C_3   0.006637 0.844721 0.975809 0.000000
C575  C     C_3   0.001487 0.884134 0.960435 0.000000
C576  C     C_R   0.966601 0.812640 0.946552 0.000000
N105  N     N_R   0.965965 0.785882 0.908461 0.000000
C577  C     C_R   0.922874 0.754760 0.895766 0.000000
C578  C     C_R   0.906458 0.711487 0.863413 0.000000
C579  C     C_R   0.860543 0.685560 0.855465 0.000000
C580  C     C_R   0.831294 0.704263 0.878572 0.000000
C581  C     C_R   0.849873 0.746593 0.913033 0.000000
C582  C     C_R   0.896942 0.770084 0.922156 0.000000
N106  N     N_R   0.924322 0.809402 0.954931 0.000000
C583  C     C_2   0.780091 0.679875 0.865118 0.000000
O105  O     O_2   0.764952 0.640865 0.836875 0.000000
O106  O     O_2   0.749115 0.701155 0.882831 0.000000
H573  H     H_    0.054123 0.805324 0.947438 0.000000
H574  H     H_    0.084099 0.846674 0.999215 0.000000
H575  H     H_    0.045055 0.790615 0.988571 0.000000
H576  H     H_    0.997795 0.852138 0.003441 0.000000
H577  H     H_    0.967716 0.896398 0.962493 0.000000
H578  H     H_    0.033132 0.912522 0.976681 0.000000
H579  H     H_    0.992456 0.868659 0.927983 0.000000
H580  H     H_    0.928185 0.698519 0.844238 0.000000
H581  H     H_    0.846560 0.652224 0.829217 0.000000
H582  H     H_    0.827899 0.761000 0.931420 0.000000
H583  H     H_    0.715340 0.685084 0.873384 0.000000
C584  C     C_3   0.101143 0.973303 0.091743 0.000000
C585  C     C_3   0.061273 0.934359 0.058563 0.000000
C586  C     C_3   0.049905 0.899043 0.078447 0.000000
C587  C     C_R   0.018110 0.953937 0.038828 0.000000
N107  N     N_R   0.969003 0.933405 0.029468 0.000000
C588  C     C_R   0.947712 0.968903 0.021754 0.000000
C589  C     C_R   0.904217 0.978791 0.025967 0.000000
C590  C     C_R   0.885675 0.012739 0.011147 0.000000
C591  C     C_R   0.910316 0.033081 0.991025 0.000000
C592  C     C_R   0.958159 0.028960 0.994372 0.000000
C593  C     C_R   0.978118 0.000149 0.014573 0.000000
N108  N     N_R   0.023963 0.991790 0.024265 0.000000
C594  C     C_2   0.884889 0.056591 0.964567 0.000000
O107  O     O_2   0.897922 0.057439 0.936068 0.000000
O108  O     O_2   0.844856 0.073438 0.969380 0.000000
H584  H     H_    0.086206 0.996201 0.114160 0.000000
H585  H     H_    0.128181 0.955942 0.107157 0.000000
H586  H     H_    0.119997 0.993188 0.077864 0.000000
H587  H     H_    0.078664 0.917383 0.036278 0.000000
H588  H     H_    0.074553 0.872860 0.075213 0.000000
H589  H     H_    0.055858 0.918683 0.110990 0.000000
H590  H     H_    0.012713 0.879159 0.064809 0.000000
H591  H     H_    0.884492 0.960252 0.039649 0.000000
H592  H     H_    0.849572 0.018329 0.010952 0.000000
H593  H     H_    0.977919 0.046963 0.980571 0.000000
H594  H     H_    0.827227 0.087502 0.950918 0.000000
C595  C     C_3   0.972970 0.763769 0.026747 0.000000
C596  C     C_3   0.931364 0.754075 0.042060 0.000000
C597  C     C_3   0.949228 0.724830 0.068485 0.000000
C598  C     C_R   0.918843 0.801418 0.064591 0.000000
N109  N     N_R   0.932629 0.844347 0.059353 0.000000
C599  C     C_R   0.943170 0.878106 0.097211 0.000000
C600  C     C_R   0.959661 0.928221 0.111446 0.000000
C601  C     C_R   0.964067 0.955795 0.150620 0.000000
C602  C     C_R   0.950664 0.934028 0.175260 0.000000
C603  C     C_R   0.931856 0.884312 0.160075 0.000000
C604  C     C_R   0.928214 0.857318 0.120936 0.000000
N110  N     N_R   0.907940 0.809483 0.099937 0.000000
C605  C     C_2   0.954906 0.964023 0.216746 0.000000
O109  O     O_2   0.969903 0.008124 0.229432 0.000000
O110  O     O_2   0.940714 0.943356 0.240609 0.000000
H595  H     H_    0.000513 0.796159 0.048721 0.000000
H596  H     H_    0.990781 0.731825 0.021286 0.000000
H597  H     H_    0.958644 0.767865 0.997788 0.000000
H598  H     H_    0.899828 0.731896 0.015596 0.000000
H599  H     H_    0.931357 0.728040 0.091655 0.000000
H600  H     H_    0.943571 0.685976 0.049119 0.000000
H601  H     H_    0.988783 0.737625 0.084092 0.000000
H602  H     H_    0.970042 0.947443 0.094206 0.000000
H603  H     H_    0.977875 0.994752 0.161541 0.000000
H604  H     H_    0.921191 0.867342 0.178888 0.000000
H605  H     H_    0.940208 0.963880 0.266723 0.000000
C606  C     C_3   0.853171 0.751375 0.248183 0.000000
C607  C     C_3   0.865038 0.784644 0.226395 0.000000
C608  C     C_3   0.868196 0.837733 0.251519 0.000000
C609  C     C_R   0.910167 0.778141 0.214326 0.000000
N111  N     N_R   0.953309 0.773776 0.239269 0.000000
C610  C     C_R   0.985826 0.783813 0.222230 0.000000
C611  C     C_R   0.033105 0.780070 0.234093 0.000000
C612  C     C_R   0.062463 0.787023 0.212320 0.000000
C613  C     C_R   0.043124 0.796290 0.177750 0.000000
C614  C     C_R   0.993891 0.796726 0.164596 0.000000
C615  C     C_R   0.964364 0.790243 0.187304 0.000000
N112  N     N_R   0.914998 0.785611 0.180159 0.000000
C616  C     C_2   0.074922 0.803235 0.154343 0.000000
O111  O     O_2   0.117065 0.798765 0.164821 0.000000
O112  O     O_2   0.058146 0.814321 0.121226 0.000000
H606  H     H_    0.854927 0.771770 0.279591 0.000000
H607  H     H_    0.815520 0.730053 0.232032 0.000000
H608  H     H_    0.878865 0.726566 0.249078 0.000000
H609  H     H_    0.834444 0.776724 0.198615 0.000000
H610  H     H_    0.832802 0.847841 0.240712 0.000000
H611  H     H_    0.875172 0.844678 0.283896 0.000000
H612  H     H_    0.897532 0.861318 0.248163 0.000000
H613  H     H_    0.046008 0.768844 0.258841 0.000000
H614  H     H_    0.099975 0.783802 0.221967 0.000000
H615  H     H_    0.981481 0.801521 0.136979 0.000000
H616  H     H_    0.079249 0.816499 0.105458 0.000000
C617  C     C_3   0.425196 0.852431 0.691215 0.000000
C618  C     C_3   0.421901 0.807944 0.654980 0.000000
C619  C     C_3   0.465833 0.787867 0.665585 0.000000
C620  C     C_R   0.377130 0.768744 0.640323 0.000000
N113  N     N_R   0.362903 0.743233 0.662644 0.000000
C621  C     C_R   0.316832 0.720151 0.638315 0.000000
C622  C     C_R   0.279716 0.696251 0.646057 0.000000
C623  C     C_R   0.236978 0.671821 0.614943 0.000000
C624  C     C_R   0.232577 0.669340 0.576018 0.000000
C625  C     C_R   0.268879 0.696527 0.569620 0.000000
C626  C     C_R   0.307790 0.725319 0.602032 0.000000
N114  N     N_R   0.343824 0.757361 0.602355 0.000000
C627  C     C_2   0.189478 0.639058 0.542121 0.000000
O113  O     O_2   0.156783 0.616409 0.548133 0.000000
O114  O     O_2   0.185879 0.635958 0.504182 0.000000
H617  H     H_    0.452503 0.853428 0.719115 0.000000
H618  H     H_    0.436988 0.885862 0.685654 0.000000
H619  H     H_    0.389506 0.852823 0.695699 0.000000
H620  H     H_    0.421317 0.821035 0.630331 0.000000
H621  H     H_    0.463344 0.754229 0.640297 0.000000
H622  H     H_    0.499030 0.815363 0.673093 0.000000
H623  H     H_    0.464312 0.780091 0.692385 0.000000
H624  H     H_    0.282734 0.693770 0.674520 0.000000
H625  H     H_    0.208614 0.651954 0.621085 0.000000
H626  H     H_    0.266941 0.695624 0.539941 0.000000
H627  H     H_    0.157377 0.616176 0.481960 0.000000
C628  C     C_3   0.393092 0.589556 0.571432 0.000000
C629  C     C_3   0.402307 0.616801 0.615792 0.000000
C630  C     C_3   0.400448 0.580291 0.637124 0.000000
C631  C     C_R   0.448234 0.653310 0.638355 0.000000
N115  N     N_R   0.489213 0.656209 0.626499 0.000000
C632  C     C_R   0.522568 0.689509 0.660628 0.000000
C633  C     C_R   0.569748 0.710699 0.666855 0.000000
C634  C     C_R   0.598589 0.740938 0.704638 0.000000
C635  C     C_R   0.578150 0.759547 0.734081 0.000000
C636  C     C_R   0.528997 0.744492 0.725872 0.000000
C637  C     C_R   0.502444 0.705798 0.690391 0.000000
N116  N     N_R   0.454355 0.685156 0.676819 0.000000
C638  C     C_2   0.608275 0.797311 0.772474 0.000000
O115  O     O_2   0.651913 0.808972 0.779322 0.000000
O116  O     O_2   0.588279 0.819610 0.800354 0.000000
H628  H     H_    0.389073 0.549722 0.564580 0.000000
H629  H     H_    0.357666 0.594231 0.554460 0.000000
H630  H     H_    0.422495 0.602951 0.561861 0.000000
H631  H     H_    0.374698 0.639169 0.617554 0.000000
H632  H     H_    0.398580 0.598858 0.667378 0.000000
H633  H     H_    0.369064 0.549232 0.619699 0.000000
H634  H     H_    0.434140 0.566092 0.642715 0.000000
H635  H     H_    0.586386 0.705668 0.644258 0.000000
H636  H     H_    0.636451 0.753379 0.709526 0.000000
H637  H     H_    0.512594 0.763369 0.747167 0.000000
H638  H     H_    0.609350 0.844261 0.825226 0.000000
C639  C     C_3   0.200187 0.534391 0.746876 0.000000
C640  C     C_3   0.201935 0.584338 0.743949 0.000000
C641  C     C_3   0.159119 0.586658 0.711741 0.000000
C642  C     C_R   0.212164 0.618948 0.785155 0.000000
N117  N     N_R   0.177660 0.636702 0.802610 0.000000
C643  C     C_R   0.203543 0.652378 0.842434 0.000000
C644  C     C_R   0.188695 0.673202 0.875380 0.000000
C645  C     C_R   0.214794 0.673214 0.912522 0.000000
C646  C     C_R   0.254359 0.651026 0.916197 0.000000
C647  C     C_R   0.270756 0.634010 0.883456 0.000000
C648  C     C_R   0.247875 0.639740 0.847856 0.000000
N118  N     N_R   0.256824 0.622472 0.812341 0.000000
C649  C     C_2   0.277113 0.643492 0.953968 0.000000
O117  O     O_2   0.263085 0.659566 0.982967 0.000000
O118  O     O_2   0.312924 0.618055 0.956632 0.000000
H639  H     H_    0.180485 0.532161 0.767939 0.000000
H640  H     H_    0.183302 0.504530 0.717201 0.000000
H641  H     H_    0.237771 0.531304 0.760683 0.000000
H642  H     H_    0.233366 0.595043 0.736219 0.000000
H643  H     H_    0.171338 0.613383 0.699201 0.000000
H644  H     H_    0.145577 0.550967 0.686407 0.000000
H645  H     H_    0.130810 0.597580 0.725071 0.000000
H646  H     H_    0.156854 0.687869 0.873500 0.000000
H647  H     H_    0.200954 0.686385 0.937495 0.000000
H648  H     H_    0.297314 0.612331 0.884908 0.000000
H649  H     H_    0.327437 0.612743 0.981397 0.000000
C650  C     C_3   0.318228 0.747167 0.749362 0.000000
C651  C     C_3   0.335473 0.713743 0.771546 0.000000
C652  C     C_3   0.294153 0.703649 0.786483 0.000000
C653  C     C_R   0.343532 0.666325 0.745112 0.000000
N119  N     N_R   0.350497 0.662060 0.708726 0.000000
C654  C     C_R   0.321487 0.618048 0.683928 0.000000
C655  C     C_R   0.302759 0.599319 0.642303 0.000000
C656  C     C_R   0.268211 0.556726 0.622979 0.000000
C657  C     C_R   0.251708 0.532884 0.645054 0.000000
C658  C     C_R   0.271532 0.551490 0.686769 0.000000
C659  C     C_R   0.305187 0.594777 0.705771 0.000000
N120  N     N_R   0.322049 0.622853 0.745662 0.000000
C660  C     C_2   0.211289 0.490138 0.624127 0.000000
O119  O     O_2   0.197276 0.471819 0.587350 0.000000
O120  O     O_2   0.188598 0.471705 0.645177 0.000000
H650  H     H_    0.321445 0.783730 0.771743 0.000000
H651  H     H_    0.338787 0.749610 0.728871 0.000000
H652  H     H_    0.278891 0.734428 0.732514 0.000000
H653  H     H_    0.368515 0.732478 0.797538 0.000000
H654  H     H_    0.306965 0.686700 0.808250 0.000000
H655  H     H_    0.283803 0.738187 0.801642 0.000000
H656  H     H_    0.261982 0.680043 0.761009 0.000000
H657  H     H_    0.310608 0.618293 0.623948 0.000000
H658  H     H_    0.252659 0.543852 0.590478 0.000000
H659  H     H_    0.258796 0.534101 0.704312 0.000000
H660  H     H_    0.161834 0.443860 0.631243 0.000000
C661  C     C_3   0.677649 0.462850 0.539371 0.000000
C662  C     C_3   0.661079 0.509751 0.552267 0.000000
C663  C     C_3   0.698803 0.538735 0.591682 0.000000
C664  C     C_R   0.653334 0.529381 0.518633 0.000000
N121  N     N_R   0.682241 0.570804 0.519845 0.000000
C665  C     C_R   0.663662 0.568929 0.481341 0.000000
C666  C     C_R   0.678068 0.599887 0.463545 0.000000
C667  C     C_R   0.648319 0.596240 0.426159 0.000000
C668  C     C_R   0.602487 0.566117 0.409137 0.000000
C669  C     C_R   0.588997 0.534828 0.427279 0.000000
C670  C     C_R   0.622521 0.533304 0.460774 0.000000
N122  N     N_R   0.615606 0.505548 0.482182 0.000000
C671  C     C_2   0.567916 0.569281 0.373278 0.000000
O121  O     O_2   0.580856 0.594621 0.355955 0.000000
O122  O     O_2   0.521279 0.545744 0.360188 0.000000
H661  H     H_    0.712420 0.468188 0.533047 0.000000
H662  H     H_    0.681021 0.445482 0.562264 0.000000
H663  H     H_    0.649798 0.441002 0.511711 0.000000
H664  H     H_    0.626247 0.505208 0.557962 0.000000
H665  H     H_    0.710269 0.575044 0.591941 0.000000
H666  H     H_    0.683049 0.537557 0.615499 0.000000
H667  H     H_    0.730400 0.521089 0.596898 0.000000
H668  H     H_    0.709323 0.628999 0.478889 0.000000
H669  H     H_    0.659430 0.620543 0.412327 0.000000
H670  H     H_    0.553291 0.511797 0.415636 0.000000
H671  H     H_    0.498398 0.549479 0.337437 0.000000
C672  C     C_3   0.418186 0.525017 0.447554 0.000000
C673  C     C_3   0.472464 0.538703 0.455817 0.000000
C674  C     C_3   0.484251 0.585071 0.448635 0.000000
C675  C     C_R   0.500084 0.538569 0.496592 0.000000
N123  N     N_R   0.486833 0.561823 0.530783 0.000000
C676  C     C_R   0.484591 0.525952 0.546176 0.000000
C677  C     C_R   0.474421 0.527299 0.580334 0.000000
C678  C     C_R   0.464166 0.483988 0.586279 0.000000
C679  C     C_R   0.464185 0.440138 0.557505 0.000000
C680  C     C_R   0.482482 0.440524 0.526602 0.000000
C681  C     C_R   0.495670 0.485034 0.523534 0.000000
N124  N     N_R   0.511140 0.493467 0.494737 0.000000
C682  C     C_2   0.440964 0.394011 0.557905 0.000000
O123  O     O_2   0.434684 0.391853 0.588734 0.000000
O124  O     O_2   0.421963 0.355233 0.523138 0.000000
H672  H     H_    0.407145 0.549373 0.471806 0.000000
H673  H     H_    0.398143 0.526953 0.418082 0.000000
H674  H     H_    0.408453 0.487450 0.446385 0.000000
H675  H     H_    0.481785 0.509460 0.433110 0.000000
H676  H     H_    0.523854 0.594413 0.455589 0.000000
H677  H     H_    0.466821 0.578933 0.416301 0.000000
H678  H     H_    0.469730 0.613935 0.466860 0.000000
H679  H     H_    0.471611 0.560857 0.600597 0.000000
H680  H     H_    0.451797 0.484356 0.611449 0.000000
H681  H     H_    0.484135 0.406794 0.504548 0.000000
H682  H     H_    0.403447 0.325927 0.522762 0.000000
C683  C     C_3   0.665644 0.379234 0.455991 0.000000
C684  C     C_3   0.610709 0.366174 0.435427 0.000000
C685  C     C_3   0.601181 0.322033 0.400328 0.000000
C686  C     C_R   0.580926 0.355921 0.460522 0.000000
N125  N     N_R   0.589639 0.320978 0.477809 0.000000
C687  C     C_R   0.595722 0.346436 0.516538 0.000000
C688  C     C_R   0.625165 0.339047 0.548906 0.000000
C689  C     C_R   0.630069 0.370885 0.587122 0.000000
C690  C     C_R   0.607478 0.410754 0.591821 0.000000
C691  C     C_R   0.584186 0.421447 0.558325 0.000000
C692  C     C_R   0.580118 0.389262 0.520522 0.000000
N126  N     N_R   0.569193 0.396025 0.484643 0.000000
C693  C     C_2   0.610527 0.443079 0.632339 0.000000
O125  O     O_2   0.634560 0.436345 0.662104 0.000000
O126  O     O_2   0.585289 0.479181 0.636838 0.000000
H683  H     H_    0.684995 0.358597 0.436293 0.000000
H684  H     H_    0.678965 0.418086 0.461267 0.000000
H685  H     H_    0.675589 0.371656 0.484360 0.000000
H686  H     H_    0.599866 0.396503 0.426271 0.000000
H687  H     H_    0.562405 0.315169 0.383661 0.000000
H688  H     H_    0.624729 0.324590 0.381738 0.000000
H689  H     H_    0.609506 0.294572 0.413264 0.000000
H690  H     H_    0.643560 0.308774 0.544417 0.000000
H691  H     H_    0.651333 0.364087 0.613077 0.000000
H692  H     H_    0.572214 0.455362 0.562554 0.000000
H693  H     H_    0.585930 0.499030 0.663537 0.000000
C694  C     C_3   0.501535 0.294981 0.529877 0.000000
C695  C     C_3   0.532255 0.263345 0.546245 0.000000
C696  C     C_3   0.519785 0.265131 0.583669 0.000000
C697  C     C_R   0.523763 0.213280 0.514008 0.000000
N127  N     N_R   0.491921 0.174508 0.512759 0.000000
C698  C     C_R   0.467332 0.152857 0.472930 0.000000
C699  C     C_R   0.422134 0.122289 0.454293 0.000000
C700  C     C_R   0.404235 0.103493 0.412702 0.000000
C701  C     C_R   0.431549 0.114822 0.390286 0.000000
C702  C     C_R   0.474483 0.149364 0.409660 0.000000
C703  C     C_R   0.489533 0.171132 0.451259 0.000000
N128  N     N_R   0.526366 0.209545 0.476126 0.000000
C704  C     C_2   0.414447 0.090810 0.346141 0.000000
O127  O     O_2   0.377643 0.058956 0.329396 0.000000
O128  O     O_2   0.438977 0.104062 0.323836 0.000000
H694  H     H_    0.506372 0.330305 0.554567 0.000000
H695  H     H_    0.512725 0.303308 0.506592 0.000000
H696  H     H_    0.462943 0.275644 0.516950 0.000000
H697  H     H_    0.570580 0.279234 0.556781 0.000000
H698  H     H_    0.515243 0.229101 0.584544 0.000000
H699  H     H_    0.549704 0.289988 0.610746 0.000000
H700  H     H_    0.485650 0.278452 0.583883 0.000000
H701  H     H_    0.400302 0.111591 0.470495 0.000000
H702  H     H_    0.369794 0.077928 0.398034 0.000000
H703  H     H_    0.496597 0.155770 0.392422 0.000000
H704  H     H_    0.427571 0.088042 0.294808 0.000000
C705  C     C_3   0.573247 0.110229 0.457510 0.000000
C706  C     C_3   0.623977 0.128017 0.458934 0.000000
C707  C     C_3   0.626095 0.116461 0.416393 0.000000
C708  C     C_R   0.645668 0.180396 0.485497 0.000000
N129  N     N_R   0.637655 0.217468 0.470476 0.000000
C709  C     C_R   0.683592 0.243193 0.481673 0.000000
C710  C     C_R   0.700167 0.276493 0.467175 0.000000
C711  C     C_R   0.749792 0.290851 0.476037 0.000000
C712  C     C_R   0.782409 0.271591 0.499211 0.000000
C713  C     C_R   0.765219 0.239594 0.515246 0.000000
C714  C     C_R   0.715767 0.225642 0.505315 0.000000
N130  N     N_R   0.692458 0.188533 0.511179 0.000000
C715  C     C_2   0.834350 0.281707 0.503813 0.000000
O129  O     O_2   0.849685 0.309137 0.489101 0.000000
O130  O     O_2   0.865313 0.260398 0.524031 0.000000
H705  H     H_    0.547273 0.111493 0.430318 0.000000
H706  H     H_    0.568474 0.071320 0.454347 0.000000
H707  H     H_    0.566710 0.132513 0.485229 0.000000
H708  H     H_    0.648222 0.106853 0.471547 0.000000
H709  H     H_    0.661684 0.134852 0.417440 0.000000
H710  H     H_    0.622369 0.076374 0.402148 0.000000
H711  H     H_    0.595997 0.127546 0.397805 0.000000
H712  H     H_    0.675861 0.286584 0.445510 0.000000
H713  H     H_    0.762578 0.314988 0.462513 0.000000
H714  H     H_    0.789390 0.222912 0.532437 0.000000
H715  H     H_    0.899503 0.267133 0.527064 0.000000
C716  C     C_3   0.817723 0.180226 0.699456 0.000000
C717  C     C_3   0.789993 0.165951 0.655212 0.000000
C718  C     C_3   0.739179 0.171561 0.655504 0.000000
C719  C     C_R   0.807866 0.198430 0.635780 0.000000
N131  N     N_R   0.847170 0.236668 0.659232 0.000000
C720  C     C_R   0.831043 0.274403 0.650358 0.000000
C721  C     C_R   0.848216 0.323387 0.672664 0.000000
C722  C     C_R   0.824532 0.356668 0.660182 0.000000
C723  C     C_R   0.785494 0.340680 0.624818 0.000000
C724  C     C_R   0.766460 0.291182 0.604454 0.000000
C725  C     C_R   0.788550 0.258224 0.618723 0.000000
N132  N     N_R   0.773398 0.209117 0.607059 0.000000
C726  C     C_2   0.765456 0.375973 0.607935 0.000000
O131  O     O_2   0.776330 0.419565 0.628221 0.000000
O132  O     O_2   0.738074 0.360611 0.568842 0.000000
H716  H     H_    0.802494 0.207134 0.719013 0.000000
H717  H     H_    0.814830 0.147189 0.707544 0.000000
H718  H     H_    0.855247 0.196639 0.705725 0.000000
H719  H     H_    0.792649 0.128466 0.639207 0.000000
H720  H     H_    0.714171 0.164264 0.625342 0.000000
H721  H     H_    0.725053 0.146782 0.668943 0.000000
H722  H     H_    0.740269 0.209831 0.673897 0.000000
H723  H     H_    0.879865 0.336230 0.699228 0.000000
H724  H     H_    0.838785 0.395290 0.676999 0.000000
H725  H     H_    0.734570 0.280149 0.578794 0.000000
H726  H     H_    0.727388 0.383965 0.556813 0.000000
C727  C     C_3   0.783594 0.021816 0.598652 0.000000
C728  C     C_3   0.749671 0.038245 0.569355 0.000000
C729  C     C_3   0.715511 0.060967 0.590069 0.000000
C730  C     C_R   0.776353 0.068505 0.551332 0.000000
N133  N     N_R   0.755589 0.101263 0.535082 0.000000
C731  C     C_R   0.776937 0.100521 0.506762 0.000000
C732  C     C_R   0.767568 0.123374 0.479243 0.000000
C733  C     C_R   0.798792 0.124474 0.457202 0.000000
C734  C     C_R   0.838312 0.101957 0.462509 0.000000
C735  C     C_R   0.843546 0.074140 0.486757 0.000000
C736  C     C_R   0.811542 0.073010 0.508039 0.000000
N134  N     N_R   0.812872 0.051977 0.535862 0.000000
C737  C     C_2   0.875678 0.109221 0.444014 0.000000
O133  O     O_2   0.868981 0.129025 0.419147 0.000000
O134  O     O_2   0.919079 0.097532 0.456857 0.000000
H727  H     H_    0.797797 0.050588 0.629024 0.000000
H728  H     H_    0.764895 0.988188 0.600258 0.000000
H729  H     H_    0.813838 0.014620 0.587690 0.000000
H730  H     H_    0.726213 0.005421 0.544099 0.000000
H731  H     H_    0.679643 0.035733 0.577030 0.000000
H732  H     H_    0.727164 0.066782 0.622624 0.000000
H733  H     H_    0.714137 0.095431 0.585797 0.000000
H734  H     H_    0.736241 0.138989 0.473641 0.000000
H735  H     H_    0.792852 0.144503 0.436942 0.000000
H736  H     H_    0.872760 0.054689 0.489320 0.000000
H737  H     H_    0.945177 0.105885 0.447194 0.000000
C738  C     C_3   0.240927 0.803327 0.577515 0.000000
C739  C     C_3   0.210392 0.771756 0.535760 0.000000
C740  C     C_3   0.157712 0.769980 0.532766 0.000000
C741  C     C_R   0.233750 0.777997 0.504795 0.000000
N135  N     N_R   0.211082 0.787343 0.469796 0.000000
C742  C     C_R   0.241464 0.774607 0.448279 0.000000
C743  C     C_R   0.238219 0.779005 0.411780 0.000000
C744  C     C_R   0.270560 0.760802 0.392583 0.000000
C745  C     C_R   0.306491 0.739897 0.410547 0.000000
C746  C     C_R   0.310717 0.738342 0.448652 0.000000
C747  C     C_R   0.278669 0.757690 0.467623 0.000000
N136  N     N_R   0.278389 0.763369 0.505374 0.000000
C748  C     C_2   0.341956 0.723179 0.390281 0.000000
O135  O     O_2   0.335398 0.720460 0.355498 0.000000
O136  O     O_2   0.382583 0.712211 0.410203 0.000000
H738  H     H_    0.277423 0.809026 0.575339 0.000000
H739  H     H_    0.229095 0.838247 0.587577 0.000000
H740  H     H_    0.239026 0.784640 0.598959 0.000000
H741  H     H_    0.211093 0.734112 0.532651 0.000000
H742  H     H_    0.137350 0.732853 0.512471 0.000000
H743  H     H_    0.154302 0.773642 0.562755 0.000000
H744  H     H_    0.142525 0.799157 0.524972 0.000000
H745  H     H_    0.210742 0.795419 0.397875 0.000000
H746  H     H_    0.267801 0.763772 0.363638 0.000000
H747  H     H_    0.340495 0.726126 0.464490 0.000000
H748  H     H_    0.405995 0.701680 0.396814 0.000000
C749  C     C_3   0.958071 0.978324 0.615089 0.000000
C750  C     C_3   0.924535 0.933817 0.612379 0.000000
C751  C     C_3   0.919801 0.940846 0.653769 0.000000
C752  C     C_R   0.875594 0.919332 0.578440 0.000000
N137  N     N_R   0.852835 0.951337 0.562082 0.000000
C753  C     C_R   0.811325 0.921764 0.534632 0.000000
C754  C     C_R   0.772677 0.933759 0.511251 0.000000
C755  C     C_R   0.732315 0.898282 0.485985 0.000000
C756  C     C_R   0.730816 0.850796 0.483989 0.000000
C757  C     C_R   0.770971 0.839014 0.505934 0.000000
C758  C     C_R   0.810495 0.875095 0.531960 0.000000
N138  N     N_R   0.849634 0.871187 0.559647 0.000000
C759  C     C_2   0.685640 0.814151 0.461388 0.000000
O137  O     O_2   0.679273 0.777035 0.468863 0.000000
O138  O     O_2   0.649930 0.822480 0.433895 0.000000
H749  H     H_    0.936680 0.002187 0.603752 0.000000
H750  H     H_    0.982881 0.999343 0.646075 0.000000
H751  H     H_    0.982077 0.966927 0.597149 0.000000
H752  H     H_    0.943788 0.903647 0.607082 0.000000
H753  H     H_    0.936246 0.913268 0.664412 0.000000
H754  H     H_    0.940278 0.976475 0.677094 0.000000
H755  H     H_    0.881153 0.937977 0.651958 0.000000
H756  H     H_    0.772282 0.969831 0.512111 0.000000
H757  H     H_    0.701394 0.908361 0.469066 0.000000
H758  H     H_    0.769134 0.802959 0.505296 0.000000
H759  H     H_    0.619862 0.798599 0.419593 0.000000
C760  C     C_3   0.938574 0.667399 0.598539 0.000000
C761  C     C_3   0.946225 0.715736 0.593032 0.000000
C762  C     C_3   0.931171 0.704761 0.548286 0.000000
C763  C     C_R   0.923034 0.752234 0.617856 0.000000
N139  N     N_R   0.898963 0.786265 0.605444 0.000000
C764  C     C_R   0.891093 0.812933 0.639423 0.000000
C765  C     C_R   0.860561 0.844992 0.641977 0.000000
C766  C     C_R   0.850758 0.865926 0.677381 0.000000
C767  C     C_R   0.869595 0.851913 0.709634 0.000000
C768  C     C_R   0.897303 0.816238 0.705424 0.000000
C769  C     C_R   0.908354 0.797061 0.670142 0.000000
N140  N     N_R   0.928086 0.757405 0.657919 0.000000
C770  C     C_2   0.857231 0.872320 0.746837 0.000000
O139  O     O_2   0.832151 0.903194 0.749752 0.000000
O140  O     O_2   0.873224 0.857118 0.777877 0.000000
H760  H     H_    0.958550 0.642493 0.582283 0.000000
H761  H     H_    0.952022 0.672779 0.630662 0.000000
H762  H     H_    0.899409 0.651005 0.586496 0.000000
H763  H     H_    0.985382 0.731306 0.603522 0.000000
H764  H     H_    0.963935 0.700200 0.538991 0.000000
H765  H     H_    0.906522 0.668693 0.531705 0.000000
H766  H     H_    0.915001 0.733979 0.540764 0.000000
H767  H     H_    0.846251 0.855698 0.617367 0.000000
H768  H     H_    0.827516 0.892378 0.679032 0.000000
H769  H     H_    0.908161 0.803023 0.729190 0.000000
H770  H     H_    0.865075 0.870970 0.802283 0.000000
C771  C     C_3   0.996202 0.800763 0.547579 0.000000
C772  C     C_3   0.957350 0.830719 0.542948 0.000000
C773  C     C_3   0.980548 0.879533 0.546672 0.000000
C774  C     C_R   0.915722 0.809228 0.504535 0.000000
N141  N     N_R   0.912298 0.817002 0.468846 0.000000
C775  C     C_R   0.866927 0.792357 0.445148 0.000000
C776  C     C_R   0.843548 0.787595 0.406101 0.000000
C777  C     C_R   0.795739 0.763746 0.387970 0.000000
C778  C     C_R   0.771303 0.744897 0.408923 0.000000
C779  C     C_R   0.795336 0.749756 0.448358 0.000000
C780  C     C_R   0.843650 0.773414 0.465936 0.000000
N142  N     N_R   0.873390 0.784565 0.504200 0.000000
C781  C     C_2   0.719839 0.720995 0.389257 0.000000
O141  O     O_2   0.698827 0.718820 0.355141 0.000000
O142  O     O_2   0.695110 0.702345 0.408876 0.000000
H771  H     H_    0.029759 0.817662 0.544275 0.000000
H772  H     H_    0.005364 0.799117 0.578240 0.000000
H773  H     H_    0.982654 0.763695 0.525058 0.000000
H774  H     H_    0.942292 0.833150 0.567666 0.000000
H775  H     H_    0.951445 0.900299 0.542269 0.000000
H776  H     H_    0.009293 0.897189 0.576420 0.000000
H777  H     H_    0.996812 0.874503 0.522612 0.000000
H778  H     H_    0.860998 0.801698 0.388952 0.000000
H779  H     H_    0.777736 0.760507 0.357252 0.000000
H780  H     H_    0.776013 0.735814 0.464779 0.000000
H781  H     H_    0.660611 0.689344 0.396292 0.000000
C782  C     C_3   0.821912 0.958517 0.454430 0.000000
C783  C     C_3   0.856084 0.924349 0.458667 0.000000
C784  C     C_3   0.855579 0.898827 0.416280 0.000000
C785  C     C_R   0.906335 0.951450 0.487035 0.000000
N143  N     N_R   0.914840 0.994550 0.520309 0.000000
C786  C     C_R   0.963781 0.004938 0.535939 0.000000
C787  C     C_R   0.991930 0.041832 0.571380 0.000000
C788  C     C_R   0.040574 0.042436 0.586392 0.000000
C789  C     C_R   0.059940 0.003823 0.568298 0.000000
C790  C     C_R   0.031171 0.966216 0.533059 0.000000
C791  C     C_R   0.983343 0.968401 0.515816 0.000000
N144  N     N_R   0.948026 0.933056 0.484394 0.000000
C792  C     C_2   0.109438 0.001015 0.589141 0.000000
O143  O     O_2   0.137849 0.037811 0.614308 0.000000
O144  O     O_2   0.122629 0.957468 0.582950 0.000000
H782  H     H_    0.831228 0.980692 0.437245 0.000000
H783  H     H_    0.784096 0.937432 0.438474 0.000000
H784  H     H_    0.825495 0.982661 0.484550 0.000000
H785  H     H_    0.842057 0.896676 0.469500 0.000000
H786  H     H_    0.885612 0.879902 0.417779 0.000000
H787  H     H_    0.820420 0.872743 0.398865 0.000000
H788  H     H_    0.859228 0.924895 0.400832 0.000000
H789  H     H_    0.976643 0.067662 0.589820 0.000000
H790  H     H_    0.061930 0.070700 0.614842 0.000000
H791  H     H_    0.045974 0.935375 0.520323 0.000000
H792  H     H_    0.154466 0.955887 0.598546 0.000000
C793  C     C_3   0.036272 0.939062 0.445261 0.000000
C794  C     C_3   0.076694 0.912256 0.450831 0.000000
C795  C     C_3   0.120954 0.951347 0.478559 0.000000
C796  C     C_R   0.068772 0.867238 0.461779 0.000000
N145  N     N_R   0.101033 0.835684 0.459723 0.000000
C797  C     C_R   0.076213 0.795366 0.460072 0.000000
C798  C     C_R   0.088505 0.750465 0.451006 0.000000
C799  C     C_R   0.057395 0.711081 0.449413 0.000000
C800  C     C_R   0.013221 0.717091 0.455044 0.000000
C801  C     C_R   0.999962 0.762002 0.460300 0.000000
C802  C     C_R   0.032368 0.801650 0.463686 0.000000
N146  N     N_R   0.025267 0.846719 0.464296 0.000000
C803  C     C_2   0.979034 0.675215 0.452512 0.000000
O145  O     O_2   0.991484 0.636245 0.449582 0.000000
O146  O     O_2   0.933682 0.679447 0.453133 0.000000
H793  H     H_    0.044956 0.975089 0.469821 0.000000
H794  H     H_    0.034010 0.947224 0.417706 0.000000
H795  H     H_    0.002930 0.917038 0.443236 0.000000
H796  H     H_    0.080316 0.897872 0.421191 0.000000
H797  H     H_    0.153352 0.937018 0.477393 0.000000
H798  H     H_    0.122628 0.982194 0.467584 0.000000
H799  H     H_    0.119977 0.965174 0.509887 0.000000
H800  H     H_    0.123638 0.746848 0.448594 0.000000
H801  H     H_    0.068096 0.676048 0.443851 0.000000
H802  H     H_    0.964458 0.764127 0.460876 0.000000
H803  H     H_    0.911273 0.651786 0.451366 0.000000
C804  C     C_3   0.920775 0.204642 0.602347 0.000000
C805  C     C_3   0.907010 0.150325 0.587053 0.000000
C806  C     C_3   0.938553 0.131905 0.561458 0.000000
C807  C     C_R   0.913059 0.129811 0.620279 0.000000
N147  N     N_R   0.903247 0.079693 0.612064 0.000000
C808  C     C_R   0.903477 0.078006 0.648220 0.000000
C809  C     C_R   0.886644 0.038278 0.655984 0.000000
C810  C     C_R   0.880730 0.043850 0.692838 0.000000
C811  C     C_R   0.889706 0.089942 0.721375 0.000000
C812  C     C_R   0.905059 0.129759 0.712463 0.000000
C813  C     C_R   0.912686 0.123551 0.676234 0.000000
N148  N     N_R   0.919435 0.158103 0.660239 0.000000
C814  C     C_2   0.878768 0.096582 0.759184 0.000000
O147  O     O_2   0.868831 0.061195 0.768055 0.000000
O148  O     O_2   0.878529 0.141501 0.783820 0.000000
H804  H     H_    0.957147 0.214693 0.623874 0.000000
H805  H     H_    0.920828 0.217741 0.577335 0.000000
H806  H     H_    0.894669 0.220500 0.616015 0.000000
H807  H     H_    0.868665 0.140958 0.568758 0.000000
H808  H     H_    0.927410 0.092144 0.547032 0.000000
H809  H     H_    0.934188 0.147833 0.537574 0.000000
H810  H     H_    0.977157 0.141960 0.580499 0.000000
H811  H     H_    0.873613 0.003559 0.632654 0.000000
H812  H     H_    0.865847 0.012176 0.697871 0.000000
H813  H     H_    0.907565 0.165125 0.732684 0.000000
H814  H     H_    0.871167 0.145594 0.808556 0.000000
C815  C     C_3   0.794030 0.620614 0.523714 0.000000
C816  C     C_3   0.809464 0.672516 0.527703 0.000000
C817  C     C_3   0.815329 0.667580 0.487276 0.000000
C818  C     C_R   0.777003 0.707395 0.539956 0.000000
N149  N     N_R   0.789288 0.756666 0.546811 0.000000
C819  C     C_R   0.755759 0.775951 0.562904 0.000000
C820  C     C_R   0.754495 0.824777 0.580343 0.000000
C821  C     C_R   0.729163 0.838857 0.606744 0.000000
C822  C     C_R   0.708184 0.804546 0.618190 0.000000
C823  C     C_R   0.703449 0.755542 0.596575 0.000000
C824  C     C_R   0.726849 0.741014 0.567809 0.000000
N150  N     N_R   0.739427 0.696761 0.553993 0.000000
C825  C     C_2   0.703104 0.820283 0.658529 0.000000
O149  O     O_2   0.711395 0.863768 0.678765 0.000000
O150  O     O_2   0.696892 0.787336 0.675828 0.000000
H815  H     H_    0.775232 0.596642 0.491860 0.000000
H816  H     H_    0.827200 0.606918 0.534109 0.000000
H817  H     H_    0.769816 0.618565 0.540878 0.000000
H818  H     H_    0.844261 0.687495 0.551985 0.000000
H819  H     H_    0.779416 0.660875 0.464321 0.000000
H820  H     H_    0.840032 0.699827 0.490531 0.000000
H821  H     H_    0.832816 0.636233 0.477054 0.000000
H822  H     H_    0.776630 0.854050 0.578802 0.000000
H823  H     H_    0.733326 0.877516 0.622963 0.000000
H824  H     H_    0.689890 0.730378 0.608209 0.000000
H825  H     H_    0.700569 0.798552 0.704276 0.000000
C826  C     C_3   0.797527 0.741283 0.643629 0.000000
C827  C     C_3   0.813124 0.717995 0.672590 0.000000
C828  C     C_3   0.775260 0.716475 0.693472 0.000000
C829  C     C_R   0.820583 0.670002 0.649488 0.000000
N151  N     N_R   0.786138 0.634967 0.614792 0.000000
C830  C     C_R   0.812111 0.599139 0.606599 0.000000
C831  C     C_R   0.798538 0.555625 0.574067 0.000000
C832  C     C_R   0.832870 0.527621 0.567694 0.000000
C833  C     C_R   0.880878 0.544038 0.592567 0.000000
C834  C     C_R   0.894095 0.587042 0.625868 0.000000
C835  C     C_R   0.859185 0.613825 0.632510 0.000000
N152  N     N_R   0.866660 0.659564 0.659237 0.000000
C836  C     C_2   0.918472 0.519127 0.580783 0.000000
O151  O     O_2   0.907402 0.477636 0.555857 0.000000
O152  O     O_2   0.964747 0.543859 0.594417 0.000000
H826  H     H_    0.791547 0.778121 0.658411 0.000000
H827  H     H_    0.822054 0.739647 0.625430 0.000000
H828  H     H_    0.764111 0.715386 0.624880 0.000000
H829  H     H_    0.847748 0.738018 0.695226 0.000000
H830  H     H_    0.775170 0.684579 0.702838 0.000000
H831  H     H_    0.784242 0.750748 0.720137 0.000000
H832  H     H_    0.738518 0.714597 0.673889 0.000000
H833  H     H_    0.763041 0.544796 0.551864 0.000000
H834  H     H_    0.822545 0.494747 0.541057 0.000000
H835  H     H_    0.931477 0.600655 0.644633 0.000000
H836  H     H_    0.988553 0.529356 0.583351 0.000000

loop_
_geom_bond_atom_site_label_1
_geom_bond_atom_site_label_2
_geom_bond_distance
_geom_bond_site_symmetry_2
_ccdc_geom_bond_type
Zn1   N1    2.120 1_565  S
Zn1   N3    2.173 .      S
Zn1   N6    2.110 .      S
Zn1   N100  2.236 1_565  S
Zn2   N2    2.022 .      S
Zn2   N7    2.044 .      S
Zn2   N101  2.024 .      S
Zn2   N127  2.102 .      S
Zn3   N9    2.275 .      S
Zn3   N12   2.157 .      S
Zn3   N25   2.261 .      S
Zn3   N96   2.176 .      S
Zn4   N14   2.140 .      S
Zn4   N16   2.087 1_455  S
Zn4   N18   2.230 .      S
Zn4   N105  2.188 1_455  S
Zn5   N17   2.207 1_544  S
Zn5   N20   2.078 1_554  S
Zn5   N76   2.161 .      S
Zn5   N108  2.122 1_545  S
Zn6   N19   2.124 1_554  S
Zn6   N21   2.301 1_554  S
Zn6   N77   2.218 .      S
Zn6   N92   2.276 .      S
Zn7   N22   2.179 .      S
Zn7   N23   2.196 1_455  S
Zn7   N26   2.087 .      S
Zn7   N94   2.115 1_455  S
Zn8   N27   2.078 .      S
Zn8   N30   2.195 1_655  S
Zn8   N88   2.222 .      S
Zn8   N111  2.057 .      S
Zn9   N11   2.180 .      S
Zn9   N13   2.117 .      S
Zn9   N31   2.154 .      S
Zn9   N117  2.149 .      S
Zn10  N33   2.051 .      S
Zn10  N36   2.171 .      S
Zn10  N115  2.095 .      S
Zn10  N123  2.150 .      S
Zn11  N37   2.043 .      S
Zn11  N40   2.133 1_554  S
Zn11  N42   2.094 1_554  S
Zn11  N43   2.113 .      S
Zn12  N38   2.127 .      S
Zn12  N45   2.138 .      S
Zn12  N47   2.114 .      S
Zn12  N49   2.190 .      S
Zn13  N39   2.031 1_554  S
Zn13  N50   2.136 .      S
Zn13  N52   2.107 1_544  S
Zn13  N53   2.162 1_545  S
Zn14  N41   2.088 .      S
Zn14  N56   2.178 .      S
Zn14  N57   2.162 .      S
Zn14  N63   2.194 .      S
Zn15  N44   2.057 .      S
Zn15  N60   2.137 .      S
Zn15  N61   2.045 1_554  S
Zn15  N64   2.178 1_554  S
Zn16  N51   2.111 .      S
Zn16  N65   2.120 .      S
Zn16  N67   2.103 .      S
Zn16  N73   2.160 .      S
Zn17  N54   2.182 .      S
Zn17  N70   2.314 1_554  S
Zn17  N72   2.292 .      S
Zn17  N74   2.100 1_554  S
Zn18  N46   1.988 .      S
Zn18  N75   2.124 .      S
Zn18  N78   2.119 .      S
Zn18  N79   2.190 .      S
Zn19  N48   2.106 .      S
Zn19  N80   2.209 .      S
Zn19  N81   2.120 .      S
Zn19  N83   2.201 .      S
Zn20  N138  2.107 .      S
Zn20  N139  2.127 .      S
Zn20  N142  2.011 .      S
Zn20  N149  2.063 .      S
Zn21  N59   2.184 .      S
Zn21  N85   2.120 .      S
Zn21  N87   2.149 .      S
Zn21  N89   2.202 .      S
Zn22  N62   2.058 1_554  S
Zn22  N90   2.111 .      S
Zn22  N91   2.214 .      S
Zn22  N93   2.135 1_554  S
Zn23  N55   2.122 .      S
Zn23  N95   2.182 .      S
Zn23  N98   2.062 .      S
Zn23  N104  2.133 .      S
Zn24  N58   2.005 .      S
Zn24  N99   2.161 .      S
Zn24  N102  2.060 .      S
Zn24  N103  2.144 .      S
Zn25  N69   2.148 1_554  S
Zn25  N106  2.156 1_554  S
Zn25  N107  2.172 .      S
Zn25  N109  2.098 .      S
Zn26  N71   2.194 .      S
Zn26  N86   2.063 .      S
Zn26  N110  2.040 .      S
Zn26  N112  2.132 .      S
Zn27  N66   2.087 .      S
Zn27  N113  2.117 .      S
Zn27  N116  2.105 .      S
Zn27  N119  2.098 .      S
Zn28  N68   2.133 .      S
Zn28  N97   2.140 .      S
Zn28  N118  2.193 .      S
Zn28  N120  2.104 .      S
Zn29  N84   2.248 .      S
Zn29  N122  2.136 .      S
Zn29  N124  2.106 .      S
Zn29  N126  2.067 .      S
Zn30  N82   2.116 .      S
Zn30  N125  2.117 .      S
Zn30  N128  2.099 .      S
Zn30  N129  2.125 .      S
Zn31  N8    2.066 .      S
Zn31  N130  2.069 .      S
Zn31  N132  2.157 .      S
Zn31  N133  2.098 .      S
Zn32  N4    2.123 .      S
Zn32  N35   2.184 .      S
Zn32  N114  2.060 .      S
Zn32  N136  2.198 .      S
Zn33  N134  2.119 .      S
Zn33  N137  2.106 1_545  S
Zn33  N143  2.129 1_545  S
Zn33  N147  2.105 .      S
Zn34  N15   2.090 .      S
Zn34  N32   2.136 .      S
Zn34  N140  2.143 .      S
Zn34  N152  2.150 .      S
Zn35  N28   2.110 .      S
Zn35  N141  2.055 .      S
Zn35  N144  2.169 .      S
Zn35  N146  2.066 1_655  S
Zn36  N5    2.122 .      S
Zn36  N29   2.204 .      S
Zn36  N135  2.157 .      S
Zn36  N145  2.042 .      S
Zn37  N10   2.178 .      S
Zn37  N24   2.179 .      S
Zn37  N131  2.161 .      S
Zn37  N148  2.100 .      S
Zn38  N34   2.089 .      S
Zn38  N121  2.148 .      S
Zn38  N150  2.099 .      S
Zn38  N151  2.250 .      S
C1    C2    1.486 .      S
C1    H1    1.097 .      S
C1    H2    1.091 .      S
C1    H3    1.107 .      S
C2    C3    1.514 .      S
C2    C4    1.492 .      S
C2    H4    1.084 .      S
C3    H5    1.104 1_545  S
C3    H6    1.109 .      S
C3    H7    1.098 1_545  S
N1    Zn1   2.120 1_545  S
C6    H8    1.068 .      S
C7    H9    1.080 .      S
C8    C11   1.468 .      S
C9    H10   1.079 .      S
C11   O2    1.346 1_565  S
O2    C11   1.346 1_545  S
O2    H11   0.966 .      S
H5    C3    1.104 1_565  S
H7    C3    1.098 1_565  S
C12   C13   1.485 .      S
C12   H12   1.102 .      S
C12   H13   1.109 .      S
C12   H14   1.091 .      S
C13   C14   1.465 .      S
C13   C15   1.504 .      S
C13   H15   1.106 .      S
C14   H16   1.094 .      S
C14   H17   1.109 .      S
C14   H18   1.104 .      S
C17   H19   1.053 1_565  S
C18   H20   1.079 .      S
C19   C22   1.469 .      S
C20   H21   1.059 .      S
C22   O4    1.346 .      S
O4    H22   0.966 .      S
H19   C17   1.053 1_545  S
C23   C24   1.482 .      S
C23   H23   1.088 .      S
C23   H24   1.104 .      S
C23   H25   1.090 .      S
C24   C25   1.461 .      S
C24   C26   1.499 .      S
C24   H26   1.109 .      S
C25   H27   1.089 .      S
C25   H28   1.108 .      S
C25   H29   1.103 .      S
C28   H30   1.060 .      S
C29   H31   1.081 .      S
C30   C33   1.466 1_565  S
C31   H32   1.079 1_565  S
C33   C30   1.466 1_545  S
C33   O6    1.346 .      S
O6    H33   0.966 .      S
H32   C31   1.079 1_545  S
C34   C35   1.512 .      S
C34   H34   1.107 .      S
C34   H35   1.109 .      S
C34   H36   1.101 .      S
C35   C36   1.483 .      S
C35   C37   1.492 .      S
C35   H37   1.084 .      S
C36   H38   1.099 .      S
C36   H39   1.108 .      S
C36   H40   1.094 .      S
C39   H41   1.062 .      S
C40   H42   1.081 .      S
C41   C44   1.466 1_545  S
C42   H43   1.066 .      S
C44   C41   1.466 1_565  S
C44   O8    1.347 .      S
O8    H44   0.966 .      S
C45   C46   1.519 .      S
C45   H45   1.096 .      S
C45   H46   1.104 .      S
C45   H47   1.107 .      S
C46   C47   1.527 .      S
C46   C48   1.535 .      S
C46   H48   1.108 .      S
C47   H49   1.106 .      S
C47   H50   1.109 .      S
C47   H51   1.095 .      S
C50   H52   1.067 .      S
C51   H53   1.080 .      S
C52   C55   1.466 .      S
C53   H54   1.076 .      S
C55   O10   1.342 .      S
O10   H55   0.966 .      S
C56   C57   1.495 .      S
C56   H56   1.096 .      S
C56   H57   1.106 .      S
C56   H58   1.105 .      S
C57   C58   1.518 .      S
C57   C59   1.472 .      S
C57   H59   1.084 .      S
C58   H60   1.105 .      S
C58   H61   1.106 .      S
C58   H62   1.108 .      S
C61   H63   1.065 .      S
C62   H64   1.074 .      S
C63   C66   1.463 .      S
C64   H65   1.062 .      S
C66   O12   1.345 .      S
O12   H66   0.966 .      S
C67   C68   1.503 .      S
C67   H67   1.103 .      S
C67   H68   1.108 .      S
C67   H69   1.092 .      S
C68   C69   1.497 .      S
C68   C70   1.496 .      S
C68   H70   1.093 .      S
C69   H71   1.107 .      S
C69   H72   1.080 .      S
C69   H73   1.109 .      S
C72   H74   1.070 .      S
C73   H75   1.080 1_455  S
C74   C77   1.467 .      S
C75   H76   1.065 .      S
C77   O14   1.344 .      S
O14   H77   0.965 .      S
H75   C73   1.080 1_655  S
C78   C79   1.500 .      S
C78   H78   1.099 .      S
C78   H79   1.109 .      S
C78   H80   1.097 .      S
C79   C80   1.506 1_455  S
C79   C81   1.525 1_455  S
C79   H81   1.092 .      S
C80   C79   1.506 1_655  S
C80   H82   1.102 .      S
C80   H83   1.105 1_655  S
C80   H84   1.103 .      S
C81   C79   1.525 1_655  S
C83   H85   1.075 .      S
C84   H86   1.079 .      S
C85   C88   1.466 .      S
C86   H87   1.081 .      S
N16   Zn4   2.087 1_655  S
C88   O16   1.342 .      S
O16   H88   0.965 .      S
H83   C80   1.105 1_455  S
C89   C90   1.507 1_655  S
C89   H89   1.095 1_655  S
C89   H90   1.109 .      S
C89   H91   1.102 .      S
C90   C89   1.507 1_455  S
C90   C91   1.500 .      S
C90   C92   1.516 .      S
C90   H92   1.107 1_455  S
C91   H93   1.107 .      S
C91   H94   1.101 1_455  S
C91   H95   1.092 .      S
N17   Zn5   2.207 1_566  S
C94   H96   1.067 .      S
C95   H97   1.080 .      S
C96   C99   1.465 .      S
C97   H98   1.077 .      S
C99   O18   1.344 .      S
O18   H99   0.965 .      S
H89   C89   1.095 1_455  S
H92   C90   1.107 1_655  S
H94   C91   1.101 1_655  S
C100  C101  1.474 .      S
C100  H100  1.089 .      S
C100  H101  1.108 .      S
C100  H102  1.104 .      S
C101  C102  1.518 1_455  S
C101  C103  1.489 .      S
C101  H103  1.091 .      S
C102  C101  1.518 1_655  S
C102  H104  1.103 .      S
C102  H105  1.108 .      S
C102  H106  1.106 .      S
N19   Zn6   2.124 1_556  S
C105  H107  1.077 .      S
C106  H108  1.080 .      S
C107  C110  1.468 .      S
C108  H109  1.075 .      S
N20   Zn5   2.078 1_556  S
C110  O20   1.346 .      S
O20   H110  0.966 1_545  S
H110  O20   0.966 1_565  S
C111  C112  1.463 .      S
C111  H111  1.099 .      S
C111  H112  1.090 .      S
C111  H113  1.075 1_455  S
C112  C113  1.507 1_556  S
C112  C114  1.368 .      S
C112  H114  1.081 .      S
C113  C112  1.507 1_554  S
C113  H115  1.109 .      S
C113  H116  1.094 .      S
C113  H117  1.098 .      S
N21   Zn6   2.301 1_556  S
C116  H118  1.050 .      S
C117  H119  1.081 .      S
C118  C121  1.468 .      S
C119  H120  1.074 .      S
C121  O22   1.346 .      S
O22   H121  0.966 .      S
H113  C111  1.075 1_655  S
C122  C123  1.516 1_455  S
C122  H122  1.107 .      S
C122  H123  1.107 .      S
C122  H124  1.108 .      S
C123  C122  1.516 1_655  S
C123  C124  1.484 1_655  S
C123  C125  1.510 .      S
C123  H125  1.095 .      S
C124  C123  1.484 1_455  S
C124  H126  1.108 .      S
C124  H127  1.087 .      S
C124  H128  1.109 .      S
N23   Zn7   2.196 1_655  S
C127  H129  1.069 .      S
C128  H130  1.078 .      S
C129  C132  1.468 .      S
C130  H131  1.063 .      S
C132  O24   1.347 .      S
O24   H132  0.966 .      S
C133  C134  1.495 .      S
C133  H133  1.093 .      S
C133  H134  1.096 1_455  S
C133  H135  1.093 .      S
C134  C135  1.484 .      S
C134  C136  1.345 .      S
C134  H136  1.055 .      S
C135  H137  1.101 .      S
C135  H138  1.084 .      S
C135  H139  1.089 .      S
C138  H140  1.072 .      S
C139  H141  1.081 .      S
C140  C143  1.467 .      S
C141  H142  1.080 .      S
C143  O26   1.346 1_556  S
O26   C143  1.346 1_554  S
O26   H143  0.966 .      S
H134  C133  1.096 1_655  S
C144  C145  1.516 .      S
C144  H144  1.101 .      S
C144  H145  1.108 .      S
C144  H146  1.103 .      S
C145  C146  1.497 .      S
C145  C147  1.462 .      S
C145  H147  1.093 .      S
C146  H148  1.100 1_655  S
C146  H149  1.106 .      S
C146  H150  1.094 .      S
C149  H151  1.061 .      S
C150  H152  1.078 .      S
C151  C154  1.463 .      S
C152  H153  1.074 .      S
C154  O28   1.344 1_565  S
O28   C154  1.344 1_545  S
O28   H154  0.964 .      S
H148  C146  1.100 1_455  S
C155  C156  1.501 .      S
C155  H155  1.099 .      S
C155  H156  1.107 .      S
C155  H157  1.107 .      S
C156  C157  1.530 .      S
C156  C158  1.498 .      S
C156  H158  1.091 .      S
C157  H159  1.102 .      S
C157  H160  1.109 .      S
C157  H161  1.100 .      S
C160  H162  1.062 .      S
C161  H163  1.080 .      S
C162  C165  1.466 .      S
C163  H164  1.068 .      S
N30   Zn8   2.195 1_455  S
C165  O30   1.344 .      S
O30   H165  0.964 1_455  S
H165  O30   0.964 1_655  S
C166  C167  1.512 .      S
C166  H166  1.106 .      S
C166  H167  1.109 .      S
C166  H168  1.108 .      S
C167  C168  1.500 .      S
C167  C169  1.504 1_655  S
C167  H169  1.105 .      S
C168  H170  1.104 .      S
C168  H171  1.104 .      S
C168  H172  1.095 .      S
C169  C167  1.504 1_455  S
C171  H173  1.073 .      S
C172  H174  1.081 .      S
C173  C176  1.469 .      S
C174  H175  1.064 .      S
C176  O32   1.345 .      S
O32   H176  0.966 .      S
C177  C178  1.482 .      S
C177  H177  1.100 .      S
C177  H178  1.109 .      S
C177  H179  1.079 .      S
C178  C179  1.500 .      S
C178  C180  1.525 .      S
C178  H180  1.097 .      S
C179  H181  1.100 .      S
C179  H182  1.105 .      S
C179  H183  1.093 .      S
C182  H184  1.056 .      S
C183  H185  1.080 .      S
C184  C187  1.469 .      S
C185  H186  1.069 .      S
C187  O34   1.346 .      S
O34   H187  0.966 .      S
C188  C189  1.500 .      S
C188  H188  1.101 .      S
C188  H189  1.103 .      S
C188  H190  1.109 .      S
C189  C190  1.512 .      S
C189  C191  1.492 .      S
C189  H191  1.092 .      S
C190  H192  1.107 .      S
C190  H193  1.102 .      S
C190  H194  1.106 .      S
C193  H195  1.047 .      S
C194  H196  1.081 .      S
C195  C198  1.455 .      S
C196  H197  1.067 .      S
C198  O36   1.341 .      S
O36   H198  0.965 .      S
C199  C200  1.500 .      S
C199  H199  1.107 .      S
C199  H200  1.107 .      S
C199  H201  1.082 .      S
C200  C201  1.500 .      S
C200  C202  1.524 .      S
C200  H202  1.080 .      S
C201  H203  1.093 .      S
C201  H204  1.091 .      S
C201  H205  1.106 .      S
C204  H206  1.070 .      S
C205  H207  1.079 .      S
C206  C209  1.474 .      S
C207  H208  1.057 .      S
C209  O38   1.349 .      S
O38   H209  0.964 .      S
C210  C211  1.507 .      S
C210  H210  1.092 .      S
C210  H211  1.108 .      S
C210  H212  1.107 .      S
C211  C212  1.496 .      S
C211  C213  1.498 .      S
C211  H213  1.102 .      S
C212  H214  1.101 .      S
C212  H215  1.096 .      S
C212  H216  1.093 .      S
N39   Zn13  2.031 1_556  S
C215  H217  1.063 1_545  S
C216  H218  1.080 1_545  S
C217  C220  1.467 .      S
C218  H219  1.048 .      S
N40   Zn11  2.133 1_556  S
C220  O40   1.339 .      S
O40   H220  0.966 .      S
H217  C215  1.063 1_565  S
H218  C216  1.080 1_565  S
C221  C222  1.512 .      S
C221  H221  1.101 .      S
C221  H222  1.109 .      S
C221  H223  1.094 .      S
C222  C223  1.459 .      S
C222  C224  1.495 .      S
C222  H224  1.075 .      S
C223  H225  1.096 .      S
C223  H226  1.104 .      S
C223  H227  1.099 .      S
C226  H228  1.080 .      S
C227  H229  1.081 .      S
C228  C231  1.466 .      S
C229  H230  1.072 .      S
N42   Zn11  2.094 1_556  S
C231  O42   1.344 .      S
O42   H231  0.966 .      S
C232  C233  1.479 .      S
C232  H232  1.087 .      S
C232  H233  1.107 .      S
C232  H234  1.096 1_554  S
C233  C234  1.512 .      S
C233  C235  1.482 .      S
C233  H235  1.101 .      S
C234  H236  1.097 .      S
C234  H237  1.109 .      S
C234  H238  1.087 .      S
C237  H239  1.070 .      S
C238  H240  1.081 .      S
C239  C242  1.467 .      S
C240  H241  1.062 .      S
C242  O44   1.346 .      S
O44   H242  0.965 .      S
H234  C232  1.096 1_556  S
C243  C244  1.521 .      S
C243  H243  1.101 .      S
C243  H244  1.109 .      S
C243  H245  1.100 .      S
C244  C245  1.470 .      S
C244  C246  1.494 .      S
C244  H246  1.108 .      S
C245  H247  1.083 .      S
C245  H248  1.095 .      S
C245  H249  1.106 .      S
C248  H250  1.067 .      S
C249  H251  1.077 .      S
C250  C253  1.468 .      S
C251  H252  1.071 .      S
C253  O46   1.346 .      S
O46   H253  0.966 .      S
C254  C255  1.513 .      S
C254  H254  1.101 .      S
C254  H255  1.109 .      S
C254  H256  1.107 .      S
C255  C256  1.488 .      S
C255  C257  1.485 .      S
C255  H257  1.096 .      S
C256  H258  1.084 .      S
C256  H259  1.106 .      S
C256  H260  1.083 .      S
C259  H261  1.079 .      S
C260  H262  1.081 .      S
C261  C264  1.467 .      S
C262  H263  1.075 .      S
C264  O48   1.345 .      S
O48   H264  0.966 .      S
C265  C266  1.514 .      S
C265  H265  1.103 .      S
C265  H266  1.109 1_554  S
C265  H267  1.105 .      S
C266  C267  1.481 .      S
C266  C268  1.475 .      S
C266  H268  1.081 1_554  S
C267  H269  1.096 .      S
C267  H270  1.103 1_554  S
C267  H271  1.095 .      S
C270  H272  1.058 .      S
C271  H273  1.080 .      S
C272  C275  1.465 .      S
C273  H274  1.079 .      S
C275  O50   1.344 .      S
O50   H275  0.964 .      S
H266  C265  1.109 1_556  S
H268  C266  1.081 1_556  S
H270  C267  1.103 1_556  S
C276  C277  1.505 .      S
C276  H276  1.087 .      S
C276  H277  1.091 .      S
C276  H278  1.104 .      S
C277  C278  1.515 .      S
C277  C279  1.519 .      S
C277  H279  1.097 .      S
C278  H280  1.098 .      S
C278  H281  1.107 .      S
C278  H282  1.106 .      S
C281  H283  1.051 .      S
C282  H284  1.079 1_556  S
C283  C286  1.468 .      S
C284  H285  1.066 .      S
N52   Zn13  2.107 1_566  S
C286  O52   1.344 .      S
O52   H286  0.965 .      S
H284  C282  1.079 1_554  S
C287  C288  1.468 .      S
C287  H287  1.102 .      S
C287  H288  1.101 .      S
C287  H289  1.096 .      S
C288  C289  1.507 1_565  S
C288  C290  1.454 1_556  S
C288  H290  1.107 1_556  S
C289  C288  1.507 1_545  S
C289  H291  1.105 1_556  S
C289  H292  1.107 .      S
C289  H293  1.093 .      S
C290  C288  1.454 1_554  S
N53   Zn13  2.162 1_565  S
C292  H294  1.070 .      S
C293  H295  1.081 1_565  S
C294  C297  1.467 .      S
C295  H296  1.066 .      S
C297  O54   1.346 .      S
O54   H297  0.966 .      S
H290  C288  1.107 1_554  S
H291  C289  1.105 1_554  S
H295  C293  1.081 1_545  S
C298  C299  1.511 .      S
C298  H298  1.101 .      S
C298  H299  1.106 .      S
C298  H300  1.095 .      S
C299  C300  1.522 .      S
C299  C301  1.518 .      S
C299  H301  1.098 .      S
C300  H302  1.107 .      S
C300  H303  1.105 .      S
C300  H304  1.105 .      S
C303  H305  1.078 .      S
C304  H306  1.080 .      S
C305  C308  1.456 .      S
C306  H307  1.078 .      S
C308  O56   1.346 .      S
O56   H308  0.961 1_556  S
H308  O56   0.961 1_554  S
C309  C310  1.467 .      S
C309  H309  1.099 .      S
C309  H310  1.108 .      S
C309  H311  1.097 .      S
C310  C311  1.511 .      S
C310  C312  1.493 .      S
C310  H312  1.075 .      S
C311  H313  1.102 .      S
C311  H314  1.105 .      S
C311  H315  1.105 .      S
C314  H316  1.045 .      S
C315  H317  1.077 .      S
C316  C319  1.465 .      S
C317  H318  1.076 .      S
C319  O58   1.345 .      S
O58   H319  0.966 .      S
C320  C321  1.510 .      S
C320  H320  1.109 1_554  S
C320  H321  1.108 .      S
C320  H322  1.100 .      S
C321  C322  1.471 .      S
C321  C323  1.462 .      S
C321  H323  1.092 1_554  S
C322  H324  1.107 1_554  S
C322  H325  1.089 .      S
C322  H326  1.094 .      S
C325  H327  1.069 .      S
C326  H328  1.081 .      S
C327  C330  1.466 .      S
C328  H329  1.069 .      S
C330  O60   1.344 .      S
O60   H330  0.965 .      S
H320  C320  1.109 1_556  S
H323  C321  1.092 1_556  S
H324  C322  1.107 1_556  S
C331  C332  1.492 .      S
C331  H331  1.092 .      S
C331  H332  1.107 .      S
C331  H333  1.105 .      S
C332  C333  1.522 .      S
C332  C334  1.507 .      S
C332  H334  1.090 .      S
C333  H335  1.101 .      S
C333  H336  1.109 .      S
C333  H337  1.104 .      S
N61   Zn15  2.045 1_556  S
C336  H338  1.059 .      S
C337  H339  1.080 .      S
C338  C341  1.470 .      S
C339  H340  1.060 .      S
N62   Zn22  2.058 1_556  S
C341  O62   1.345 .      S
O62   H341  0.966 .      S
C342  C343  1.512 .      S
C342  H342  1.099 .      S
C342  H343  1.107 .      S
C342  H344  1.108 .      S
C343  C344  1.478 .      S
C343  C345  1.501 .      S
C343  H345  1.101 .      S
C344  H346  1.106 .      S
C344  H347  1.108 .      S
C344  H348  1.104 .      S
C347  H349  1.061 .      S
C348  H350  1.081 .      S
C349  C352  1.468 .      S
C350  H351  1.068 .      S
N64   Zn15  2.178 1_556  S
C352  O64   1.347 .      S
O64   H352  0.966 .      S
C353  C354  1.488 .      S
C353  H353  1.098 .      S
C353  H354  1.101 .      S
C353  H355  1.105 .      S
C354  C355  1.500 .      S
C354  C356  1.524 .      S
C354  H356  1.084 .      S
C355  H357  1.108 .      S
C355  H358  1.090 .      S
C355  H359  1.094 .      S
C358  H360  1.064 .      S
C359  H361  1.081 .      S
C360  C363  1.460 .      S
C361  H362  1.064 .      S
C363  O66   1.344 .      S
O66   H363  0.965 .      S
C364  C365  1.527 .      S
C364  H364  1.103 .      S
C364  H365  1.107 .      S
C364  H366  1.099 .      S
C365  C366  1.518 .      S
C365  C367  1.501 .      S
C365  H367  1.087 .      S
C366  H368  1.101 .      S
C366  H369  1.109 .      S
C366  H370  1.096 .      S
C369  H371  1.061 .      S
C370  H372  1.080 .      S
C371  C374  1.461 .      S
C372  H373  1.071 .      S
C374  O68   1.340 .      S
O68   H374  0.964 .      S
C375  C376  1.487 .      S
C375  H375  1.100 .      S
C375  H376  1.093 .      S
C375  H377  1.106 1_554  S
C376  C377  1.492 .      S
C376  C378  1.348 .      S
C376  H378  1.070 .      S
C377  H379  1.101 .      S
C377  H380  1.076 .      S
C377  H381  1.088 .      S
N69   Zn25  2.148 1_556  S
C380  H382  1.080 .      S
C381  H383  1.081 .      S
C382  C385  1.470 .      S
C383  H384  1.047 .      S
N70   Zn17  2.314 1_556  S
C385  O70   1.346 .      S
O70   H385  0.966 1_565  S
H377  C375  1.106 1_556  S
H385  O70   0.966 1_545  S
C386  C387  1.514 .      S
C386  H386  1.100 .      S
C386  H387  1.108 .      S
C386  H388  1.109 .      S
C387  C388  1.513 .      S
C387  C389  1.503 .      S
C387  H389  1.099 .      S
C388  H390  1.090 .      S
C388  H391  1.106 1_554  S
C388  H392  1.108 .      S
C391  H393  1.064 .      S
C392  H394  1.079 .      S
C393  C396  1.467 1_565  S
C394  H395  1.076 .      S
C396  C393  1.467 1_545  S
C396  O72   1.346 .      S
O72   H396  0.966 .      S
H391  C388  1.106 1_556  S
C397  C398  1.515 .      S
C397  H397  1.108 .      S
C397  H398  1.108 .      S
C397  H399  1.094 .      S
C398  C399  1.486 .      S
C398  C400  1.506 .      S
C398  H400  1.101 .      S
C399  H401  1.104 .      S
C399  H402  1.109 .      S
C399  H403  1.106 .      S
C402  H404  1.061 .      S
C403  H405  1.080 .      S
C404  C407  1.468 .      S
C405  H406  1.065 .      S
N74   Zn17  2.100 1_556  S
C407  O74   1.345 .      S
O74   H407  0.966 .      S
C408  C409  1.511 1_556  S
C408  H408  1.103 .      S
C408  H409  1.106 .      S
C408  H410  1.091 .      S
C409  C408  1.511 1_554  S
C409  C410  1.490 .      S
C409  C411  1.526 .      S
C409  H411  1.107 .      S
C410  H412  1.109 .      S
C410  H413  1.095 .      S
C410  H414  1.071 .      S
C413  H415  1.071 .      S
C414  H416  1.081 .      S
C415  C418  1.468 .      S
C416  H417  1.070 .      S
C418  O76   1.347 .      S
O76   H418  0.966 1_455  S
H418  O76   0.966 1_655  S
C419  C420  1.473 .      S
C419  H419  1.085 1_554  S
C419  H420  1.104 1_554  S
C419  H421  1.101 .      S
C420  C421  1.508 .      S
C420  C422  1.447 .      S
C420  H422  1.089 .      S
C421  H423  1.094 .      S
C421  H424  1.100 .      S
C421  H425  1.109 1_554  S
C424  H426  1.060 .      S
C425  H427  1.079 .      S
C426  C429  1.468 .      S
C427  H428  1.072 .      S
C429  O78   1.346 .      S
O78   H429  0.966 .      S
H419  C419  1.085 1_556  S
H420  C419  1.104 1_556  S
H425  C421  1.109 1_556  S
C430  C431  1.515 .      S
C430  H430  1.106 .      S
C430  H431  1.106 .      S
C430  H432  1.102 .      S
C431  C432  1.520 .      S
C431  C433  1.498 .      S
C431  H433  1.108 .      S
C432  H434  1.107 .      S
C432  H435  1.105 .      S
C432  H436  1.109 .      S
C435  H437  1.056 .      S
C436  H438  1.080 .      S
C437  C440  1.466 .      S
C438  H439  1.057 .      S
C440  O80   1.345 .      S
O80   H440  0.964 .      S
C441  C442  1.510 .      S
C441  H441  1.105 .      S
C441  H442  1.108 .      S
C441  H443  1.104 .      S
C442  C443  1.489 .      S
C442  C444  1.493 .      S
C442  H444  1.079 .      S
C443  H445  1.090 .      S
C443  H446  1.109 .      S
C443  H447  1.104 .      S
C446  H448  1.072 .      S
C447  H449  1.078 .      S
C448  C451  1.468 .      S
C449  H450  1.064 .      S
C451  O82   1.346 .      S
O82   H451  0.966 .      S
C452  C453  1.503 .      S
C452  H452  1.107 .      S
C452  H453  1.108 .      S
C452  H454  1.101 .      S
C453  C454  1.495 .      S
C453  C455  1.513 .      S
C453  H455  1.087 .      S
C454  H456  1.100 .      S
C454  H457  1.108 .      S
C454  H458  1.106 .      S
C457  H459  1.062 .      S
C458  H460  1.080 .      S
C459  C462  1.471 .      S
C460  H461  1.049 .      S
C462  O84   1.345 .      S
O84   H462  0.966 .      S
C463  C464  1.515 .      S
C463  H463  1.106 .      S
C463  H464  1.108 .      S
C463  H465  1.107 .      S
C464  C465  1.485 .      S
C464  C466  1.496 .      S
C464  H466  1.098 .      S
C465  H467  1.093 .      S
C465  H468  1.109 .      S
C465  H469  1.096 .      S
C468  H470  1.053 .      S
C469  H471  1.076 .      S
C470  C473  1.471 .      S
C471  H472  1.061 .      S
C473  O86   1.350 .      S
O86   H473  0.964 .      S
C474  C475  1.515 1_455  S
C474  H474  1.109 .      S
C474  H475  1.109 .      S
C474  H476  1.091 .      S
C475  C474  1.515 1_655  S
C475  C476  1.496 .      S
C475  C477  1.497 .      S
C475  H477  1.086 .      S
C476  H478  1.092 .      S
C476  H479  1.108 1_655  S
C476  H480  1.102 .      S
C479  H481  1.075 .      S
C480  H482  1.081 .      S
C481  C484  1.469 .      S
C482  H483  1.050 .      S
C484  O88   1.346 .      S
O88   H484  0.965 .      S
H479  C476  1.108 1_455  S
C485  C486  1.507 1_556  S
C485  H485  1.095 .      S
C485  H486  1.107 .      S
C485  H487  1.104 .      S
C486  C485  1.507 1_554  S
C486  C487  1.511 .      S
C486  C488  1.501 .      S
C486  H488  1.060 .      S
C487  H489  1.108 1_655  S
C487  H490  1.109 1_655  S
C487  H491  1.103 .      S
C490  H492  1.061 .      S
C491  H493  1.077 .      S
C492  C495  1.468 .      S
C493  H494  1.070 .      S
C495  O90   1.347 .      S
O90   H495  0.966 .      S
H489  C487  1.108 1_455  S
H490  C487  1.109 1_455  S
C496  C497  1.511 .      S
C496  H496  1.097 .      S
C496  H497  1.109 .      S
C496  H498  1.103 .      S
C497  C498  1.519 .      S
C497  C499  1.523 .      S
C497  H499  1.104 .      S
C498  H500  1.109 .      S
C498  H501  1.105 .      S
C498  H502  1.090 .      S
C501  H503  1.054 .      S
C502  H504  1.076 .      S
C503  C506  1.467 .      S
C504  H505  1.056 .      S
C506  O92   1.347 .      S
O92   H506  0.966 .      S
C507  C508  1.494 .      S
C507  H507  1.107 .      S
C507  H508  1.098 .      S
C507  H509  1.092 .      S
C508  C509  1.514 .      S
C508  C510  1.530 .      S
C508  H510  1.105 .      S
C509  H511  1.100 .      S
C509  H512  1.108 .      S
C509  H513  1.106 .      S
N93   Zn22  2.135 1_556  S
C512  H514  1.063 .      S
C513  H515  1.080 .      S
C514  C517  1.466 .      S
C515  H516  1.075 .      S
N94   Zn7   2.115 1_655  S
C517  O94   1.344 .      S
O94   H517  0.965 .      S
C518  C519  1.498 .      S
C518  H518  1.091 .      S
C518  H519  1.108 .      S
C518  H520  1.108 .      S
C519  C520  1.508 .      S
C519  C521  1.462 .      S
C519  H521  1.079 .      S
C520  H522  1.106 .      S
C520  H523  1.107 .      S
C520  H524  1.098 .      S
C523  H525  1.053 .      S
C524  H526  1.080 .      S
C525  C528  1.468 .      S
C526  H527  1.067 .      S
C528  O96   1.341 .      S
O96   H528  0.966 .      S
C529  C530  1.502 .      S
C529  H529  1.100 .      S
C529  H530  1.089 .      S
C529  H531  1.099 .      S
C530  C531  1.510 .      S
C530  C532  1.482 .      S
C530  H532  1.092 .      S
C531  H533  1.097 .      S
C531  H534  1.109 .      S
C531  H535  1.094 .      S
C534  H536  1.061 .      S
C535  H537  1.080 .      S
C536  C539  1.468 .      S
C537  H538  1.064 .      S
C539  O98   1.347 .      S
O98   H539  0.966 .      S
C540  C541  1.503 .      S
C540  H540  1.087 .      S
C540  H541  1.106 .      S
C540  H542  1.109 .      S
C541  C542  1.517 .      S
C541  C543  1.527 .      S
C541  H543  1.097 .      S
C542  H544  1.080 .      S
C542  H545  1.109 .      S
C542  H546  1.109 .      S
C545  H547  1.078 .      S
C546  H548  1.081 .      S
C547  C550  1.468 .      S
C548  H549  1.067 .      S
N100  Zn1   2.236 1_545  S
C550  O100  1.346 .      S
O100  H550  0.966 .      S
C551  C552  1.503 .      S
C551  H551  1.106 .      S
C551  H552  1.108 .      S
C551  H553  1.093 .      S
C552  C553  1.488 .      S
C552  C554  1.515 .      S
C552  H554  1.093 .      S
C553  H555  1.078 .      S
C553  H556  1.109 .      S
C553  H557  1.103 .      S
C556  H558  1.055 .      S
C557  H559  1.080 .      S
C558  C561  1.468 .      S
C559  H560  1.039 .      S
C561  O102  1.344 .      S
O102  H561  0.965 .      S
C562  C563  1.507 .      S
C562  H562  1.098 .      S
C562  H563  1.108 .      S
C562  H564  1.104 .      S
C563  C564  1.507 .      S
C563  C565  1.496 .      S
C563  H565  1.105 .      S
C564  H566  1.100 .      S
C564  H567  1.107 .      S
C564  H568  1.085 .      S
C567  H569  1.069 .      S
C568  H570  1.081 .      S
C569  C572  1.469 .      S
C570  H571  1.069 .      S
C572  O104  1.343 .      S
O104  H572  0.966 .      S
C573  C574  1.513 .      S
C573  H573  1.099 .      S
C573  H574  1.101 .      S
C573  H575  1.108 .      S
C574  C575  1.449 .      S
C574  C576  1.367 1_455  S
C574  H576  1.078 1_456  S
C575  H577  1.096 1_455  S
C575  H578  1.067 .      S
C575  H579  1.080 1_455  S
C576  C574  1.367 1_655  S
N105  Zn4   2.188 1_655  S
C578  H580  1.079 .      S
C579  H581  1.080 .      S
C580  C583  1.467 .      S
C581  H582  1.075 .      S
N106  Zn25  2.156 1_556  S
C583  O106  1.344 .      S
O106  H583  0.966 .      S
H576  C574  1.078 1_654  S
H577  C575  1.096 1_655  S
H579  C575  1.080 1_655  S
C584  C585  1.495 .      S
C584  H584  1.107 .      S
C584  H585  1.109 .      S
C584  H586  1.089 .      S
C585  C586  1.510 .      S
C585  C587  1.538 .      S
C585  H587  1.093 .      S
C586  H588  1.106 .      S
C586  H589  1.108 .      S
C586  H590  1.079 .      S
C589  H591  1.074 .      S
C590  H592  1.080 .      S
C591  C594  1.457 .      S
C592  H593  1.069 .      S
N108  Zn5   2.122 1_565  S
C594  O108  1.346 .      S
O108  H594  0.966 .      S
C595  C596  1.509 .      S
C595  H595  1.102 1_655  S
C595  H596  1.108 .      S
C595  H597  1.086 1_554  S
C596  C597  1.521 .      S
C596  C598  1.514 .      S
C596  H598  1.102 .      S
C597  H599  1.100 .      S
C597  H600  1.106 .      S
C597  H601  1.105 .      S
C600  H602  1.056 .      S
C601  H603  1.080 .      S
C602  C605  1.466 .      S
C603  H604  1.065 .      S
C605  O110  1.343 .      S
O110  H605  0.965 .      S
H595  C595  1.102 1_455  S
H597  C595  1.086 1_556  S
C606  C607  1.520 .      S
C606  H606  1.105 .      S
C606  H607  1.107 .      S
C606  H608  1.099 .      S
C607  C608  1.520 .      S
C607  C609  1.510 .      S
C607  H609  1.101 .      S
C608  H610  1.108 .      S
C608  H611  1.101 .      S
C608  H612  1.106 .      S
C611  H613  1.056 .      S
C612  H614  1.079 .      S
C613  C616  1.468 .      S
C614  H615  1.044 .      S
C616  O112  1.342 .      S
O112  H616  0.965 .      S
C617  C618  1.516 .      S
C617  H617  1.108 .      S
C617  H618  1.109 .      S
C617  H619  1.098 .      S
C618  C619  1.474 .      S
C618  C620  1.501 .      S
C618  H620  1.091 .      S
C619  H621  1.102 .      S
C619  H622  1.108 .      S
C619  H623  1.094 .      S
C622  H624  1.056 .      S
C623  H625  1.081 .      S
C624  C627  1.468 .      S
C625  H626  1.072 .      S
C627  O114  1.346 .      S
O114  H627  0.966 .      S
C628  C629  1.507 .      S
C628  H628  1.105 .      S
C628  H629  1.101 .      S
C628  H630  1.096 .      S
C629  C630  1.526 .      S
C629  C631  1.478 .      S
C629  H631  1.092 .      S
C630  H632  1.093 .      S
C630  H633  1.108 .      S
C630  H634  1.100 .      S
C633  H635  1.051 .      S
C634  H636  1.075 .      S
C635  C638  1.463 .      S
C636  H637  1.064 .      S
C638  O116  1.341 .      S
O116  H638  0.963 .      S
C639  C640  1.506 .      S
C639  H639  1.097 .      S
C639  H640  1.105 .      S
C639  H641  1.103 .      S
C640  C641  1.497 .      S
C640  C642  1.463 .      S
C640  H642  1.078 .      S
C641  H643  1.107 .      S
C641  H644  1.107 .      S
C641  H645  1.095 .      S
C644  H646  1.057 .      S
C645  H647  1.079 .      S
C646  C649  1.468 .      S
C647  H648  1.053 .      S
C649  O118  1.345 .      S
O118  H649  0.966 .      S
C650  C651  1.510 .      S
C650  H650  1.105 .      S
C650  H651  1.098 .      S
C650  H652  1.106 .      S
C651  C652  1.495 .      S
C651  C653  1.508 .      S
C651  H653  1.100 .      S
C652  H654  1.079 .      S
C652  H655  1.108 .      S
C652  H656  1.106 .      S
C655  H657  1.059 .      S
C656  H658  1.080 .      S
C657  C660  1.471 .      S
C658  H659  1.059 .      S
C660  O120  1.346 .      S
O120  H660  0.966 .      S
C661  C662  1.485 .      S
C661  H661  1.108 .      S
C661  H662  1.107 .      S
C661  H663  1.069 .      S
C662  C663  1.486 .      S
C662  C664  1.502 .      S
C662  H664  1.096 .      S
C663  H665  1.085 .      S
C663  H666  1.103 .      S
C663  H667  1.105 .      S
C666  H668  1.069 .      S
C667  H669  1.074 .      S
C668  C671  1.466 .      S
C669  H670  1.078 .      S
C671  O122  1.345 .      S
O122  H671  0.965 .      S
C672  C673  1.515 .      S
C672  H672  1.100 .      S
C672  H673  1.108 .      S
C672  H674  1.099 .      S
C673  C674  1.497 .      S
C673  C675  1.503 .      S
C673  H675  1.107 .      S
C674  H676  1.099 .      S
C674  H677  1.109 .      S
C674  H678  1.102 .      S
C677  H679  1.058 .      S
C678  H680  1.080 .      S
C679  C682  1.463 .      S
C680  H681  1.079 .      S
C682  O124  1.345 .      S
O124  H682  0.966 .      S
C683  C684  1.525 .      S
C683  H683  1.106 .      S
C683  H684  1.108 .      S
C683  H685  1.107 .      S
C684  C685  1.450 .      S
C684  C686  1.504 .      S
C684  H686  1.097 .      S
C685  H687  1.094 .      S
C685  H688  1.106 .      S
C685  H689  1.079 .      S
C688  H690  1.077 .      S
C689  H691  1.080 .      S
C690  C693  1.466 .      S
C691  H692  1.069 .      S
C693  O126  1.345 .      S
O126  H693  0.965 .      S
C694  C695  1.506 .      S
C694  H694  1.108 .      S
C694  H695  1.083 .      S
C694  H696  1.108 .      S
C695  C696  1.506 .      S
C695  C697  1.516 .      S
C695  H697  1.079 .      S
C696  H698  1.068 .      S
C696  H699  1.109 .      S
C696  H700  1.107 .      S
C699  H701  1.071 .      S
C700  H702  1.079 .      S
C701  C704  1.468 .      S
C702  H703  1.063 .      S
C704  O128  1.345 .      S
O128  H704  0.966 .      S
C705  C706  1.501 .      S
C705  H705  1.095 .      S
C705  H706  1.105 .      S
C705  H707  1.101 .      S
C706  C707  1.515 .      S
C706  C708  1.499 .      S
C706  H708  1.095 .      S
C707  H709  1.107 .      S
C707  H710  1.109 .      S
C707  H711  1.105 .      S
C710  H712  1.057 .      S
C711  H713  1.080 .      S
C712  C715  1.467 .      S
C713  H714  1.080 .      S
C715  O130  1.346 .      S
O130  H715  0.966 .      S
C716  C717  1.508 .      S
C716  H716  1.106 .      S
C716  H717  1.107 .      S
C716  H718  1.083 .      S
C717  C718  1.510 .      S
C717  C719  1.497 .      S
C717  H719  1.095 .      S
C718  H720  1.092 .      S
C718  H721  1.109 .      S
C718  H722  1.107 .      S
C721  H723  1.077 .      S
C722  H724  1.081 .      S
C723  C726  1.465 .      S
C724  H725  1.065 .      S
C726  O132  1.345 .      S
O132  H726  0.964 .      S
C727  C728  1.494 .      S
C727  H727  1.103 .      S
C727  H728  1.109 1_545  S
C727  H729  1.078 .      S
C728  C729  1.497 .      S
C728  C730  1.537 .      S
C728  H730  1.104 .      S
C729  H731  1.106 .      S
C729  H732  1.105 .      S
C729  H733  1.079 .      S
C732  H734  1.064 .      S
C733  H735  1.081 .      S
C734  C737  1.465 .      S
C735  H736  1.073 .      S
C737  O134  1.346 .      S
O134  H737  0.966 .      S
H728  C727  1.109 1_565  S
C738  C739  1.486 .      S
C738  H738  1.090 .      S
C738  H739  1.100 .      S
C738  H740  1.107 .      S
C739  C740  1.505 .      S
C739  C741  1.527 .      S
C739  H741  1.081 .      S
C740  H742  1.103 .      S
C740  H743  1.109 .      S
C740  H744  1.087 .      S
C743  H745  1.073 .      S
C744  H746  1.080 .      S
C745  C748  1.468 .      S
C746  H747  1.071 .      S
C748  O136  1.344 .      S
O136  H748  0.966 .      S
C749  C750  1.515 .      S
C749  H749  1.092 1_565  S
C749  H750  1.107 .      S
C749  H751  1.093 .      S
C750  C751  1.519 .      S
C750  C752  1.536 .      S
C750  H752  1.091 .      S
C751  H753  1.106 .      S
C751  H754  1.104 .      S
C751  H755  1.104 .      S
N137  Zn33  2.106 1_565  S
C754  H756  1.054 .      S
C755  H757  1.076 .      S
C756  C759  1.465 .      S
C757  H758  1.050 .      S
C759  O138  1.346 .      S
O138  H759  0.966 .      S
H749  C749  1.092 1_545  S
C760  C761  1.505 .      S
C760  H760  1.109 .      S
C760  H761  1.095 .      S
C760  H762  1.102 .      S
C761  C762  1.503 .      S
C761  C763  1.517 .      S
C761  H763  1.099 .      S
C762  H764  1.105 .      S
C762  H765  1.102 .      S
C762  H766  1.097 .      S
C765  H767  1.049 .      S
C766  H768  1.080 .      S
C767  C770  1.468 .      S
C768  H769  1.054 .      S
C770  O140  1.345 .      S
O140  H770  0.966 .      S
C771  C772  1.511 .      S
C771  H771  1.108 1_655  S
C771  H772  1.107 1_655  S
C771  H773  1.093 .      S
C772  C773  1.475 .      S
C772  C774  1.492 .      S
C772  H774  1.100 .      S
C773  H775  1.102 .      S
C773  H776  1.108 1_655  S
C773  H777  1.091 .      S
C776  H778  1.063 .      S
C777  H779  1.080 .      S
C778  C781  1.467 .      S
C779  H780  1.072 .      S
C781  O142  1.342 .      S
O142  H781  0.966 .      S
H771  C771  1.108 1_455  S
H772  C771  1.107 1_455  S
H776  C773  1.108 1_455  S
C782  C783  1.499 .      S
C782  H782  1.106 .      S
C782  H783  1.108 .      S
C782  H784  1.081 .      S
C783  C784  1.497 .      S
C783  C785  1.512 .      S
C783  H785  1.105 .      S
C784  H786  1.083 .      S
C784  H787  1.108 .      S
C784  H788  1.105 .      S
N143  Zn33  2.129 1_565  S
C787  H789  1.068 .      S
C788  H790  1.081 .      S
C789  C792  1.465 .      S
C790  H791  1.071 .      S
C792  O144  1.343 1_545  S
O144  C792  1.343 1_565  S
O144  H792  0.966 .      S
C793  C794  1.488 .      S
C793  H793  1.104 .      S
C793  H794  1.103 .      S
C793  H795  1.085 .      S
C794  C795  1.509 .      S
C794  C796  1.518 .      S
C794  H796  1.077 .      S
C795  H797  1.078 .      S
C795  H798  1.108 .      S
C795  H799  1.105 .      S
C798  H800  1.065 .      S
C799  H801  1.081 .      S
C800  C803  1.468 1_455  S
C801  H802  1.049 .      S
N146  Zn35  2.066 1_455  S
C803  C800  1.468 1_655  S
C803  O146  1.347 .      S
O146  H803  0.966 .      S
C804  C805  1.487 .      S
C804  H804  1.084 .      S
C804  H805  1.108 .      S
C804  H806  1.086 .      S
C805  C806  1.508 .      S
C805  C807  1.508 .      S
C805  H807  1.093 .      S
C806  H808  1.092 .      S
C806  H809  1.108 .      S
C806  H810  1.106 .      S
C809  H811  1.056 .      S
C810  H812  1.080 .      S
C811  C814  1.470 .      S
C812  H813  1.052 .      S
C814  O148  1.347 .      S
O148  H814  0.966 .      S
C815  C816  1.498 .      S
C815  H815  1.106 .      S
C815  H816  1.105 .      S
C815  H817  1.077 .      S
C816  C817  1.509 .      S
C816  C818  1.511 .      S
C816  H818  1.093 .      S
C817  H819  1.107 .      S
C817  H820  1.086 .      S
C817  H821  1.109 .      S
C820  H822  1.051 .      S
C821  H823  1.080 .      S
C822  C825  1.463 .      S
C823  H824  1.061 .      S
C825  O150  1.343 .      S
O150  H825  0.965 .      S
C826  C827  1.444 .      S
C826  H826  1.103 .      S
C826  H827  1.100 .      S
C826  H828  1.078 .      S
C827  C828  1.512 .      S
C827  C829  1.471 .      S
C827  H829  1.085 .      S
C828  H830  1.100 .      S
C828  H831  1.108 .      S
C828  H832  1.104 .      S
C831  H833  1.074 .      S
C832  H834  1.081 .      S
C833  C836  1.464 .      S
C834  H835  1.076 .      S
C836  O152  1.345 .      S
O152  H836  0.965 .      S
C4    N1    1.375 .      A
C4    N2    1.367 .      A
N1    C5    1.379 .      A
C5    C6    1.389 1_545  A
C5    C10   1.359 .      A
C6    C5    1.389 1_565  A
C6    C7    1.382 .      A
C7    C8    1.382 .      A
C8    C9    1.378 1_565  A
C9    C8    1.378 1_545  A
C9    C10   1.376 .      A
C10   N2    1.332 .      A
C15   N3    1.393 .      A
C15   N4    1.392 .      A
N3    C16   1.345 .      A
C16   C17   1.353 .      A
C16   C21   1.354 .      A
C17   C18   1.379 .      A
C18   C19   1.377 .      A
C19   C20   1.379 .      A
C20   C21   1.377 .      A
C21   N4    1.353 .      A
C26   N5    1.396 .      A
C26   N6    1.380 .      A
N5    C27   1.353 .      A
C27   C28   1.360 .      A
C27   C32   1.356 .      A
C28   C29   1.384 .      A
C29   C30   1.391 .      A
C30   C31   1.385 .      A
C31   C32   1.375 .      A
C32   N6    1.339 .      A
C37   N7    1.374 .      A
C37   N8    1.382 .      A
N7    C38   1.346 .      A
C38   C39   1.371 .      A
C38   C43   1.353 .      A
C39   C40   1.379 1_545  A
C40   C39   1.379 1_565  A
C40   C41   1.385 1_565  A
C41   C40   1.385 1_545  A
C41   C42   1.382 .      A
C42   C43   1.380 .      A
C43   N8    1.356 .      A
C48   N9    1.420 .      A
C48   N10   1.391 1_455  A
N9    C49   1.365 .      A
C49   C50   1.373 .      A
C49   C54   1.349 1_455  A
C50   C51   1.374 1_455  A
C51   C50   1.374 1_655  A
C51   C52   1.383 .      A
C52   C53   1.391 .      A
C53   C54   1.378 .      A
C54   C49   1.349 1_655  A
C54   N10   1.343 .      A
N10   C48   1.391 1_655  A
C59   N11   1.406 .      A
C59   N12   1.386 .      A
N11   C60   1.356 .      A
C60   C61   1.375 .      A
C60   C65   1.368 .      A
C61   C62   1.376 .      A
C62   C63   1.380 .      A
C63   C64   1.382 .      A
C64   C65   1.372 .      A
C65   N12   1.349 .      A
C70   N13   1.395 .      A
C70   N14   1.389 .      A
N13   C71   1.339 .      A
C71   C72   1.361 .      A
C71   C76   1.366 .      A
C72   C73   1.378 .      A
C73   C74   1.387 1_455  A
C74   C73   1.387 1_655  A
C74   C75   1.389 1_655  A
C75   C74   1.389 1_455  A
C75   C76   1.377 .      A
C76   N14   1.359 .      A
C81   N15   1.396 .      A
C81   N16   1.386 .      A
N15   C82   1.348 .      A
C82   C83   1.365 .      A
C82   C87   1.350 .      A
C83   C84   1.381 .      A
C84   C85   1.387 .      A
C85   C86   1.388 .      A
C86   C87   1.374 .      A
C87   N16   1.338 .      A
C92   N17   1.414 .      A
C92   N18   1.404 .      A
N17   C93   1.352 .      A
C93   C94   1.369 1_556  A
C93   C98   1.370 .      A
C94   C93   1.369 1_554  A
C94   C95   1.377 .      A
C95   C96   1.387 1_554  A
C96   C95   1.387 1_556  A
C96   C97   1.387 .      A
C97   C98   1.380 .      A
C98   N18   1.353 .      A
C103  N19   1.382 1_554  A
C103  N20   1.381 1_554  A
N19   C103  1.382 1_556  A
N19   C104  1.347 .      A
C104  C105  1.368 .      A
C104  C109  1.359 .      A
C105  C106  1.380 .      A
C106  C107  1.390 .      A
C107  C108  1.389 .      A
C108  C109  1.370 .      A
C109  N20   1.349 .      A
N20   C103  1.381 1_556  A
C114  N21   1.376 .      A
C114  N22   1.360 .      A
N21   C115  1.379 .      A
C115  C116  1.378 .      A
C115  C120  1.380 .      A
C116  C117  1.382 .      A
C117  C118  1.385 .      A
C118  C119  1.380 .      A
C119  C120  1.374 .      A
C120  N22   1.341 .      A
C125  N23   1.400 .      A
C125  N24   1.401 .      A
N23   C126  1.355 .      A
C126  C127  1.380 .      A
C126  C131  1.361 .      A
C127  C128  1.382 .      A
C128  C129  1.382 .      A
C129  C130  1.380 .      A
C130  C131  1.370 .      A
C131  N24   1.348 .      A
C136  N25   1.359 .      A
C136  N26   1.346 .      A
N25   C137  1.382 .      A
C137  C138  1.387 .      A
C137  C142  1.379 .      A
C138  C139  1.385 .      A
C139  C140  1.390 .      A
C140  C141  1.381 .      A
C141  C142  1.371 .      A
C142  N26   1.335 .      A
C147  N27   1.374 .      A
C147  N28   1.383 .      A
N27   C148  1.352 .      A
C148  C149  1.374 .      A
C148  C153  1.360 .      A
C149  C150  1.376 .      A
C150  C151  1.383 .      A
C151  C152  1.383 .      A
C152  C153  1.379 .      A
C153  N28   1.350 .      A
C158  N29   1.407 .      A
C158  N30   1.402 .      A
N29   C159  1.359 .      A
C159  C160  1.377 .      A
C159  C164  1.368 .      A
C160  C161  1.377 .      A
C161  C162  1.383 .      A
C162  C163  1.383 .      A
C163  C164  1.378 .      A
C164  N30   1.350 .      A
C169  N31   1.405 .      A
C169  N32   1.383 1_455  A
N31   C170  1.356 .      A
C170  C171  1.378 .      A
C170  C175  1.370 .      A
C171  C172  1.378 .      A
C172  C173  1.385 .      A
C173  C174  1.385 .      A
C174  C175  1.374 .      A
C175  N32   1.352 1_455  A
N32   C169  1.383 1_655  A
N32   C175  1.352 1_655  A
C180  N33   1.377 .      A
C180  N34   1.402 .      A
N33   C181  1.358 .      A
C181  C182  1.375 .      A
C181  C186  1.348 .      A
C182  C183  1.377 .      A
C183  C184  1.382 .      A
C184  C185  1.383 .      A
C185  C186  1.374 .      A
C186  N34   1.343 .      A
C191  N35   1.402 .      A
C191  N36   1.399 .      A
N35   C192  1.348 .      A
C192  C193  1.364 .      A
C192  C197  1.363 .      A
C193  C194  1.365 .      A
C194  C195  1.373 .      A
C195  C196  1.389 .      A
C196  C197  1.381 .      A
C197  N36   1.354 .      A
C202  N37   1.376 .      A
C202  N38   1.391 .      A
N37   C203  1.345 .      A
C203  C204  1.372 .      A
C203  C208  1.352 .      A
C204  C205  1.379 .      A
C205  C206  1.387 .      A
C206  C207  1.388 .      A
C207  C208  1.374 .      A
C208  N38   1.351 .      A
C213  N39   1.367 1_554  A
C213  N40   1.402 1_554  A
N39   C213  1.367 1_556  A
N39   C214  1.335 .      A
C214  C215  1.365 .      A
C214  C219  1.357 .      A
C215  C216  1.365 .      A
C216  C217  1.373 .      A
C217  C218  1.393 .      A
C218  C219  1.382 .      A
C219  N40   1.368 .      A
N40   C213  1.402 1_556  A
C224  N41   1.385 .      A
C224  N42   1.365 .      A
N41   C225  1.346 .      A
C225  C226  1.371 .      A
C225  C230  1.365 .      A
C226  C227  1.378 .      A
C227  C228  1.387 .      A
C228  C229  1.392 .      A
C229  C230  1.377 .      A
C230  N42   1.354 .      A
C235  N43   1.390 .      A
C235  N44   1.370 .      A
N43   C236  1.355 1_554  A
C236  N43   1.355 1_556  A
C236  C237  1.380 .      A
C236  C241  1.362 .      A
C237  C238  1.376 .      A
C238  C239  1.382 .      A
C239  C240  1.384 .      A
C240  C241  1.380 .      A
C241  N44   1.355 1_556  A
N44   C241  1.355 1_554  A
C246  N45   1.386 .      A
C246  N46   1.373 .      A
N45   C247  1.357 .      A
C247  C248  1.360 .      A
C247  C252  1.344 .      A
C248  C249  1.392 .      A
C249  C250  1.390 .      A
C250  C251  1.372 .      A
C251  C252  1.362 .      A
C252  N46   1.325 .      A
C257  N47   1.391 .      A
C257  N48   1.377 .      A
N47   C258  1.338 .      A
C258  C259  1.370 .      A
C258  C263  1.348 .      A
C259  C260  1.379 .      A
C260  C261  1.388 .      A
C261  C262  1.390 .      A
C262  C263  1.383 .      A
C263  N48   1.365 .      A
C268  N49   1.381 .      A
C268  N50   1.387 .      A
N49   C269  1.369 .      A
C269  C270  1.379 .      A
C269  C274  1.370 .      A
C270  C271  1.380 .      A
C271  C272  1.383 1_545  A
C272  C271  1.383 1_565  A
C272  C273  1.380 .      A
C273  C274  1.376 1_565  A
C274  C273  1.376 1_545  A
C274  N50   1.342 .      A
C279  N51   1.390 .      A
C279  N52   1.396 .      A
N51   C280  1.344 .      A
C280  C281  1.350 .      A
C280  C285  1.348 .      A
C281  C282  1.379 .      A
C282  C283  1.384 1_556  A
C283  C282  1.384 1_554  A
C283  C284  1.386 .      A
C284  C285  1.372 1_554  A
C285  C284  1.372 1_556  A
C285  N52   1.342 .      A
C290  N53   1.389 .      A
C290  N54   1.383 .      A
N53   C291  1.347 .      A
C291  C292  1.371 1_565  A
C291  C296  1.369 .      A
C292  C291  1.371 1_545  A
C292  C293  1.379 1_545  A
C293  C292  1.379 1_565  A
C293  C294  1.386 .      A
C294  C295  1.385 .      A
C295  C296  1.377 .      A
C296  N54   1.359 .      A
C301  N55   1.401 .      A
C301  N56   1.385 .      A
N55   C302  1.343 .      A
C302  C303  1.369 .      A
C302  C307  1.359 .      A
C303  C304  1.382 .      A
C304  C305  1.391 .      A
C305  C306  1.382 .      A
C306  C307  1.363 .      A
C307  N56   1.346 .      A
C312  N57   1.393 .      A
C312  N58   1.372 .      A
N57   C313  1.376 .      A
C313  C314  1.367 .      A
C313  C318  1.355 .      A
C314  C315  1.386 .      A
C315  C316  1.376 .      A
C316  C317  1.373 .      A
C317  C318  1.370 .      A
C318  N58   1.323 .      A
C323  N59   1.389 .      A
C323  N60   1.375 .      A
N59   C324  1.355 .      A
C324  C325  1.376 .      A
C324  C329  1.366 .      A
C325  C326  1.377 .      A
C326  C327  1.384 .      A
C327  C328  1.387 .      A
C328  C329  1.368 .      A
C329  N60   1.351 .      A
C334  N61   1.388 1_554  A
C334  N62   1.380 1_554  A
N61   C334  1.388 1_556  A
N61   C335  1.342 .      A
C335  C336  1.363 .      A
C335  C340  1.355 .      A
C336  C337  1.374 .      A
C337  C338  1.381 .      A
C338  C339  1.389 .      A
C339  C340  1.376 .      A
C340  N62   1.351 .      A
N62   C334  1.380 1_556  A
C345  N63   1.404 .      A
C345  N64   1.400 .      A
N63   C346  1.354 .      A
C346  C347  1.371 .      A
C346  C351  1.367 .      A
C347  C348  1.383 .      A
C348  C349  1.389 1_556  A
C349  C348  1.389 1_554  A
C349  C350  1.382 .      A
C350  C351  1.372 1_554  A
C351  C350  1.372 1_556  A
C351  N64   1.344 .      A
C356  N65   1.402 .      A
C356  N66   1.391 .      A
N65   C357  1.349 .      A
C357  C358  1.370 .      A
C357  C362  1.353 .      A
C358  C359  1.376 .      A
C359  C360  1.381 .      A
C360  C361  1.384 .      A
C361  C362  1.369 .      A
C362  N66   1.343 .      A
C367  N67   1.394 .      A
C367  N68   1.385 .      A
N67   C368  1.346 .      A
C368  C369  1.376 .      A
C368  C373  1.356 .      A
C369  C370  1.370 .      A
C370  C371  1.380 .      A
C371  C372  1.391 .      A
C372  C373  1.383 .      A
C373  N68   1.358 .      A
C378  N69   1.365 1_554  A
C378  N70   1.367 1_554  A
N69   C378  1.365 1_556  A
N69   C379  1.331 .      A
C379  C380  1.370 .      A
C379  C384  1.386 .      A
C380  C381  1.374 .      A
C381  C382  1.387 .      A
C382  C383  1.392 .      A
C383  C384  1.383 .      A
C384  N70   1.384 .      A
N70   C378  1.367 1_556  A
C389  N71   1.395 .      A
C389  N72   1.416 .      A
N71   C390  1.350 .      A
C390  C391  1.363 .      A
C390  C395  1.373 .      A
C391  C392  1.382 .      A
C392  C393  1.387 .      A
C393  C394  1.382 .      A
C394  C395  1.377 .      A
C395  N72   1.356 .      A
C400  N73   1.405 .      A
C400  N74   1.389 .      A
N73   C401  1.358 .      A
C401  C402  1.373 .      A
C401  C406  1.353 .      A
C402  C403  1.378 1_556  A
C403  C402  1.378 1_554  A
C403  C404  1.383 .      A
C404  C405  1.384 .      A
C405  C406  1.370 1_554  A
C406  C405  1.370 1_556  A
C406  N74   1.338 .      A
C411  N75   1.410 .      A
C411  N76   1.396 .      A
N75   C412  1.337 .      A
C412  C413  1.365 .      A
C412  C417  1.358 .      A
C413  C414  1.379 .      A
C414  C415  1.389 .      A
C415  C416  1.386 .      A
C416  C417  1.376 .      A
C417  N76   1.357 .      A
C422  N77   1.393 .      A
C422  N78   1.381 .      A
N77   C423  1.360 .      A
C423  C424  1.359 .      A
C423  C428  1.368 .      A
C424  C425  1.386 .      A
C425  C426  1.385 .      A
C426  C427  1.379 .      A
C427  C428  1.374 .      A
C428  N78   1.341 .      A
C433  N79   1.404 .      A
C433  N80   1.407 .      A
N79   C434  1.351 .      A
C434  C435  1.376 .      A
C434  C439  1.366 .      A
C435  C436  1.376 .      A
C436  C437  1.380 .      A
C437  C438  1.381 .      A
C438  C439  1.377 .      A
C439  N80   1.355 .      A
C444  N81   1.382 .      A
C444  N82   1.399 .      A
N81   C445  1.360 .      A
C445  C446  1.383 .      A
C445  C450  1.360 .      A
C446  C447  1.380 .      A
C447  C448  1.383 .      A
C448  C449  1.381 .      A
C449  C450  1.377 .      A
C450  N82   1.345 .      A
C455  N83   1.399 .      A
C455  N84   1.422 .      A
N83   C456  1.348 .      A
C456  C457  1.377 .      A
C456  C461  1.367 .      A
C457  C458  1.373 .      A
C458  C459  1.380 .      A
C459  C460  1.387 .      A
C460  C461  1.374 .      A
C461  N84   1.358 .      A
C466  N85   1.391 .      A
C466  N86   1.372 .      A
N85   C467  1.347 .      A
C467  C468  1.348 .      A
C467  C472  1.344 .      A
C468  C469  1.381 1_554  A
C469  C468  1.381 1_556  A
C469  C470  1.385 .      A
C470  C471  1.384 1_556  A
C471  C470  1.384 1_554  A
C471  C472  1.370 .      A
C472  N86   1.338 .      A
C477  N87   1.387 .      A
C477  N88   1.401 .      A
N87   C478  1.345 .      A
C478  C479  1.371 .      A
C478  C483  1.371 .      A
C479  C480  1.373 .      A
C480  C481  1.381 .      A
C481  C482  1.385 .      A
C482  C483  1.380 .      A
C483  N88   1.368 .      A
C488  N89   1.407 .      A
C488  N90   1.395 .      A
N89   C489  1.355 .      A
C489  C490  1.368 .      A
C489  C494  1.352 .      A
C490  C491  1.378 .      A
C491  C492  1.381 .      A
C492  C493  1.382 .      A
C493  C494  1.371 .      A
C494  N90   1.339 .      A
C499  N91   1.404 1_455  A
C499  N92   1.419 .      A
N91   C499  1.404 1_655  A
N91   C500  1.349 .      A
C500  C501  1.365 1_554  A
C500  C505  1.367 .      A
C501  C500  1.365 1_556  A
C501  C502  1.373 .      A
C502  C503  1.377 .      A
C503  C504  1.381 .      A
C504  C505  1.379 1_556  A
C505  C504  1.379 1_554  A
C505  N92   1.361 1_655  A
N92   C505  1.361 1_455  A
C510  N93   1.405 .      A
C510  N94   1.384 .      A
N93   C511  1.360 1_655  A
C511  N93   1.360 1_455  A
C511  C512  1.372 1_556  A
C511  C516  1.352 .      A
C512  C511  1.372 1_554  A
C512  C513  1.380 .      A
C513  C514  1.385 1_554  A
C514  C513  1.385 1_556  A
C514  C515  1.383 .      A
C515  C516  1.369 .      A
C516  N94   1.338 1_455  A
N94   C516  1.338 1_655  A
C521  N95   1.403 .      A
C521  N96   1.384 .      A
N95   C522  1.354 .      A
C522  C523  1.370 .      A
C522  C527  1.371 .      A
C523  C524  1.371 .      A
C524  C525  1.379 .      A
C525  C526  1.391 .      A
C526  C527  1.377 .      A
C527  N96   1.351 .      A
C532  N97   1.401 .      A
C532  N98   1.376 .      A
N97   C533  1.357 .      A
C533  C534  1.370 .      A
C533  C538  1.355 .      A
C534  C535  1.377 .      A
C535  C536  1.381 .      A
C536  C537  1.381 .      A
C537  C538  1.375 .      A
C538  N98   1.344 .      A
C543  N99   1.390 .      A
C543  N100  1.408 .      A
N99   C544  1.345 .      A
C544  C545  1.373 .      A
C544  C549  1.367 .      A
C545  C546  1.381 .      A
C546  C547  1.391 .      A
C547  C548  1.387 .      A
C548  C549  1.370 .      A
C549  N100  1.353 .      A
C554  N101  1.381 .      A
C554  N102  1.382 .      A
N101  C555  1.344 .      A
C555  C556  1.377 .      A
C555  C560  1.351 .      A
C556  C557  1.367 .      A
C557  C558  1.369 .      A
C558  C559  1.381 .      A
C559  C560  1.385 .      A
C560  N102  1.367 .      A
C565  N103  1.393 .      A
C565  N104  1.386 .      A
N103  C566  1.355 .      A
C566  C567  1.377 .      A
C566  C571  1.372 .      A
C567  C568  1.368 .      A
C568  C569  1.378 .      A
C569  C570  1.394 .      A
C570  C571  1.391 .      A
C571  N104  1.364 .      A
C576  N105  1.367 .      A
C576  N106  1.352 .      A
N105  C577  1.349 .      A
C577  C578  1.370 .      A
C577  C582  1.381 .      A
C578  C579  1.380 .      A
C579  C580  1.394 .      A
C580  C581  1.394 .      A
C581  C582  1.375 .      A
C582  N106  1.357 .      A
C587  N107  1.402 1_455  A
C587  N108  1.398 .      A
N107  C587  1.402 1_655  A
N107  C588  1.335 .      A
C588  C589  1.367 .      A
C588  C593  1.351 1_565  A
C589  C590  1.374 1_565  A
C590  C589  1.374 1_545  A
C590  C591  1.383 1_554  A
C591  C590  1.383 1_556  A
C591  C592  1.389 .      A
C592  C593  1.372 1_556  A
C593  C588  1.351 1_545  A
C593  C592  1.372 1_554  A
C593  N108  1.357 1_645  A
N108  C593  1.357 1_465  A
C598  N109  1.376 .      A
C598  N110  1.377 .      A
N109  C599  1.361 .      A
C599  C600  1.383 .      A
C599  C604  1.351 .      A
C600  C601  1.375 .      A
C601  C602  1.380 .      A
C602  C603  1.382 .      A
C603  C604  1.376 .      A
C604  N110  1.351 .      A
C609  N111  1.389 .      A
C609  N112  1.386 .      A
N111  C610  1.329 .      A
C610  C611  1.357 1_655  A
C610  C615  1.353 .      A
C611  C610  1.357 1_455  A
C611  C612  1.364 .      A
C612  C613  1.372 .      A
C613  C614  1.389 1_455  A
C614  C613  1.389 1_655  A
C614  C615  1.392 .      A
C615  N112  1.377 .      A
C620  N113  1.390 .      A
C620  N114  1.384 .      A
N113  C621  1.360 .      A
C621  C622  1.376 .      A
C621  C626  1.352 .      A
C622  C623  1.382 .      A
C623  C624  1.383 .      A
C624  C625  1.380 .      A
C625  C626  1.365 .      A
C626  N114  1.336 .      A
C631  N115  1.383 .      A
C631  N116  1.379 .      A
N115  C632  1.361 .      A
C632  C633  1.380 .      A
C632  C637  1.359 .      A
C633  C634  1.366 .      A
C634  C635  1.367 .      A
C635  C636  1.378 .      A
C636  C637  1.391 .      A
C637  N116  1.358 .      A
C642  N117  1.393 .      A
C642  N118  1.383 .      A
N117  C643  1.356 .      A
C643  C644  1.379 .      A
C643  C648  1.362 .      A
C644  C645  1.375 .      A
C645  C646  1.378 .      A
C646  C647  1.382 .      A
C647  C648  1.374 .      A
C648  N118  1.352 .      A
C653  N119  1.379 .      A
C653  N120  1.377 .      A
N119  C654  1.356 .      A
C654  C655  1.380 .      A
C654  C659  1.356 .      A
C655  C656  1.374 .      A
C656  C657  1.377 .      A
C657  C658  1.385 .      A
C658  C659  1.375 .      A
C659  N120  1.357 .      A
C664  N121  1.394 .      A
C664  N122  1.398 .      A
N121  C665  1.356 .      A
C665  C666  1.376 .      A
C665  C670  1.366 .      A
C666  C667  1.380 .      A
C667  C668  1.387 .      A
C668  C669  1.384 .      A
C669  C670  1.369 .      A
C670  N122  1.341 .      A
C675  N123  1.404 .      A
C675  N124  1.383 .      A
N123  C676  1.353 .      A
C676  C677  1.359 .      A
C676  C681  1.354 .      A
C677  C678  1.379 .      A
C678  C679  1.385 .      A
C679  C680  1.385 .      A
C680  C681  1.377 .      A
C681  N124  1.341 .      A
C686  N125  1.383 .      A
C686  N126  1.370 .      A
N125  C687  1.336 .      A
C687  C688  1.363 .      A
C687  C692  1.361 .      A
C688  C689  1.380 .      A
C689  C690  1.389 .      A
C690  C691  1.387 .      A
C691  C692  1.378 .      A
C692  N126  1.358 .      A
C697  N127  1.379 .      A
C697  N128  1.389 .      A
N127  C698  1.349 .      A
C698  C699  1.379 .      A
C698  C703  1.354 .      A
C699  C700  1.378 .      A
C700  C701  1.381 .      A
C701  C702  1.383 .      A
C702  C703  1.381 .      A
C703  N128  1.356 .      A
C708  N129  1.386 .      A
C708  N130  1.382 .      A
N129  C709  1.356 .      A
C709  C710  1.364 .      A
C709  C714  1.360 .      A
C710  C711  1.384 .      A
C711  C712  1.391 .      A
C712  C713  1.382 .      A
C713  C714  1.373 .      A
C714  N130  1.337 .      A
C719  N131  1.384 .      A
C719  N132  1.390 .      A
N131  C720  1.348 .      A
C720  C721  1.373 .      A
C720  C725  1.368 .      A
C721  C722  1.379 .      A
C722  C723  1.385 .      A
C723  C724  1.383 .      A
C724  C725  1.379 .      A
C725  N132  1.358 .      A
C730  N133  1.395 .      A
C730  N134  1.397 .      A
N133  C731  1.348 .      A
C731  C732  1.371 .      A
C731  C736  1.356 .      A
C732  C733  1.379 .      A
C733  C734  1.386 .      A
C734  C735  1.383 .      A
C735  C736  1.376 .      A
C736  N134  1.351 .      A
C741  N135  1.407 .      A
C741  N136  1.409 .      A
N135  C742  1.346 .      A
C742  C743  1.372 .      A
C742  C747  1.360 .      A
C743  C744  1.377 .      A
C744  C745  1.389 .      A
C745  C746  1.393 .      A
C746  C747  1.376 .      A
C747  N136  1.350 .      A
C752  N137  1.401 .      A
C752  N138  1.393 .      A
N137  C753  1.347 .      A
C753  C754  1.374 .      A
C753  C758  1.344 .      A
C754  C755  1.374 .      A
C755  C756  1.373 .      A
C756  C757  1.377 .      A
C757  C758  1.374 .      A
C758  N138  1.353 .      A
C763  N139  1.402 .      A
C763  N140  1.400 .      A
N139  C764  1.342 .      A
C764  C765  1.360 .      A
C764  C769  1.353 .      A
C765  C766  1.374 .      A
C766  C767  1.375 .      A
C767  C768  1.383 .      A
C768  C769  1.381 .      A
C769  N140  1.355 .      A
C774  N141  1.385 .      A
C774  N142  1.364 .      A
N141  C775  1.350 .      A
C775  C776  1.371 .      A
C775  C780  1.356 .      A
C776  C777  1.374 .      A
C777  C778  1.380 .      A
C778  C779  1.386 .      A
C779  C780  1.384 .      A
C780  N142  1.355 .      A
C785  N143  1.399 .      A
C785  N144  1.394 .      A
N143  C786  1.349 1_565  A
C786  N143  1.349 1_545  A
C786  C787  1.378 .      A
C786  C791  1.369 1_545  A
C787  C788  1.373 1_655  A
C788  C787  1.373 1_455  A
C788  C789  1.380 .      A
C789  C790  1.388 1_545  A
C790  C789  1.388 1_565  A
C790  C791  1.386 1_455  A
C791  C786  1.369 1_565  A
C791  C790  1.386 1_655  A
C791  N144  1.363 .      A
C796  N145  1.387 .      A
C796  N146  1.390 .      A
N145  C797  1.334 .      A
C797  C798  1.366 .      A
C797  C802  1.346 .      A
C798  C799  1.375 .      A
C799  C800  1.379 .      A
C800  C801  1.384 1_455  A
C801  C800  1.384 1_655  A
C801  C802  1.377 1_655  A
C802  C801  1.377 1_455  A
C802  N146  1.358 .      A
C807  N147  1.392 .      A
C807  N148  1.392 .      A
N147  C808  1.348 .      A
C808  C809  1.367 .      A
C808  C813  1.354 .      A
C809  C810  1.376 .      A
C810  C811  1.374 .      A
C811  C812  1.380 .      A
C812  C813  1.371 .      A
C813  N148  1.352 .      A
C818  N149  1.383 .      A
C818  N150  1.382 .      A
N149  C819  1.356 .      A
C819  C820  1.384 .      A
C819  C824  1.353 .      A
C820  C821  1.363 .      A
C821  C822  1.365 .      A
C822  C823  1.380 .      A
C823  C824  1.390 .      A
C824  N150  1.366 .      A
C829  N151  1.403 .      A
C829  N152  1.386 .      A
N151  C830  1.363 .      A
C830  C831  1.378 .      A
C830  C835  1.377 .      A
C831  C832  1.381 .      A
C832  C833  1.387 .      A
C833  C834  1.384 .      A
C834  C835  1.375 .      A
C835  N152  1.346 .      A
C11   O1    1.219 .      D
C22   O3    1.219 .      D
C33   O5    1.219 .      D
C44   O7    1.219 .      D
C55   O9    1.219 .      D
C66   O11   1.219 .      D
C77   O13   1.219 .      D
C88   O15   1.219 .      D
C99   O17   1.219 1_556  D
O17   C99   1.219 1_554  D
C110  O19   1.219 .      D
C121  O21   1.219 .      D
C132  O23   1.219 .      D
C143  O25   1.219 1_556  D
O25   C143  1.219 1_554  D
C154  O27   1.219 1_565  D
O27   C154  1.219 1_545  D
C165  O29   1.219 .      D
C176  O31   1.219 .      D
C187  O33   1.219 .      D
C198  O35   1.219 .      D
C209  O37   1.219 .      D
C220  O39   1.219 .      D
C231  O41   1.219 .      D
C242  O43   1.219 .      D
C253  O45   1.215 .      D
C264  O47   1.219 .      D
C275  O49   1.219 .      D
C286  O51   1.219 .      D
C297  O53   1.219 .      D
C308  O55   1.219 .      D
C319  O57   1.219 .      D
C330  O59   1.219 .      D
C341  O61   1.219 .      D
C352  O63   1.219 .      D
C363  O65   1.219 .      D
C374  O67   1.219 .      D
C385  O69   1.219 .      D
C396  O71   1.219 .      D
C407  O73   1.219 .      D
C418  O75   1.219 .      D
C429  O77   1.219 .      D
C440  O79   1.219 .      D
C451  O81   1.219 .      D
C462  O83   1.219 .      D
C473  O85   1.218 .      D
C484  O87   1.219 .      D
C495  O89   1.219 .      D
C506  O91   1.219 .      D
C517  O93   1.219 1_556  D
O93   C517  1.219 1_554  D
C528  O95   1.219 .      D
C539  O97   1.219 .      D
C550  O99   1.219 .      D
C561  O101  1.219 .      D
C572  O103  1.219 .      D
C583  O105  1.219 .      D
C594  O107  1.216 .      D
C605  O109  1.219 1_565  D
O109  C605  1.219 1_545  D
C616  O111  1.219 .      D
C627  O113  1.219 .      D
C638  O115  1.219 .      D
C649  O117  1.219 .      D
C660  O119  1.219 .      D
C671  O121  1.219 .      D
C682  O123  1.219 .      D
C693  O125  1.219 .      D
C704  O127  1.219 .      D
C715  O129  1.219 .      D
C726  O131  1.219 .      D
C737  O133  1.219 .      D
C748  O135  1.219 .      D
C759  O137  1.219 .      D
C770  O139  1.219 .      D
C781  O141  1.219 .      D
C792  O143  1.219 .      D
C803  O145  1.219 .      D
C814  O147  1.219 .      D
C825  O149  1.219 .      D
C836  O151  1.219 .      D
