data_str_m1_o12038_MTW
_audit_creation_date              2015-10-01T06:42:13-0700
_symmetry_space_group_name_H-M    P1
_symmetry_Int_Tables_number       1
_space_group_crystal_system       triclinic
loop_
_symmetry_equiv_pos_as_xyz
  x,y,z
_cell_length_a                    10.7191421
_cell_length_b                    25.9430194
_cell_length_c                    26.3715096
_cell_angle_alpha                 72.7354104
_cell_angle_beta                  97.2043374
_cell_angle_gamma                 91.8809079
_cell_volume                      6947.7899879

loop_
_atom_site_label
_atom_site_type_symbol
_atom_site_description
_atom_site_fract_x
_atom_site_fract_y
_atom_site_fract_z
_atom_type_partial_charge
Zn1   Zn    Zn3+2 0.809926 0.755094 0.390766 0.000000
Zn2   Zn    Zn3+2 0.261310 0.089346 0.253238 0.000000
Zn3   Zn    Zn3+2 0.191694 0.348200 0.098128 0.000000
Zn4   Zn    Zn3+2 0.262613 0.492136 0.261342 0.000000
Zn5   Zn    Zn3+2 0.274008 0.733935 0.257878 0.000000
Zn6   Zn    Zn3+2 0.434769 0.166985 0.696258 0.000000
Zn7   Zn    Zn3+2 0.449475 0.421474 0.709705 0.000000
Zn8   Zn    Zn3+2 0.881170 0.154256 0.557973 0.000000
Zn9   Zn    Zn3+2 0.807587 0.011290 0.394537 0.000000
Zn10  Zn    Zn3+2 0.599427 0.078048 0.943797 0.000000
Zn11  Zn    Zn3+2 0.908190 0.532437 0.578017 0.000000
Zn12  Zn    Zn3+2 0.810853 0.407183 0.398149 0.000000
Zn13  Zn    Zn3+2 0.153848 0.959042 0.078685 0.000000
Zn14  Zn    Zn3+2 0.622380 0.332263 0.959071 0.000000
N1    N     N_2   0.557350 0.945983 0.168241 0.000000
C1    C     C_R   0.546827 0.899423 0.209521 0.000000
C2    C     C_R   0.640306 0.887339 0.251433 0.000000
C3    C     C_R   0.635218 0.840702 0.291127 0.000000
C4    C     C_R   0.525020 0.813240 0.294473 0.000000
C5    C     C_R   0.422324 0.830846 0.257276 0.000000
C6    C     C_R   0.435872 0.872183 0.212190 0.000000
C7    C     C_R   0.534249 0.757480 0.320156 0.000000
N2    N     N_R   0.653487 0.736731 0.340752 0.000000
C8    C     C_R   0.661989 0.700084 0.314182 0.000000
C9    C     C_R   0.767092 0.673071 0.311503 0.000000
C10   C     C_R   0.758194 0.640937 0.277620 0.000000
N3    N     N_2   0.864335 0.612029 0.274385 0.000000
C11   C     C_R   0.645640 0.637560 0.246268 0.000000
C12   C     C_R   0.540211 0.665479 0.249134 0.000000
C13   C     C_R   0.551034 0.696343 0.283874 0.000000
N4    N     N_R   0.463390 0.728562 0.291324 0.000000
H1    H     H_    0.636163 0.943704 0.150484 0.000000
H2    H     H_    0.566775 0.975370 0.186996 0.000000
H3    H     H_    0.720524 0.912412 0.251829 0.000000
H4    H     H_    0.716926 0.824504 0.318908 0.000000
H5    H     H_    0.334982 0.809901 0.262505 0.000000
H6    H     H_    0.361741 0.883761 0.179212 0.000000
H7    H     H_    0.855431 0.679884 0.332274 0.000000
H8    H     H_    0.860449 0.601468 0.239570 0.000000
H9    H     H_    0.948448 0.627130 0.287149 0.000000
H10   H     H_    0.638966 0.610955 0.221317 0.000000
H11   H     H_    0.453920 0.663053 0.224094 0.000000
N5    N     N_2   0.687767 0.681476 0.153799 0.000000
C14   C     C_R   0.770468 0.705462 0.186082 0.000000
C15   C     C_R   0.896812 0.694433 0.193056 0.000000
C16   C     C_R   0.975988 0.712447 0.229571 0.000000
C17   C     C_R   0.930139 0.739415 0.260748 0.000000
C18   C     C_R   0.805221 0.754042 0.250598 0.000000
C19   C     C_R   0.725455 0.737195 0.213439 0.000000
C20   C     C_R   0.013438 0.747020 0.306787 0.000000
N6    N     N_R   0.143913 0.742782 0.310387 0.000000
C21   C     C_R   0.179613 0.746717 0.360164 0.000000
C22   C     C_R   0.298651 0.744594 0.386600 0.000000
C23   C     C_R   0.313059 0.748685 0.438226 0.000000
N7    N     N_2   0.433908 0.747303 0.466651 0.000000
C24   C     C_R   0.207945 0.748435 0.464438 0.000000
C25   C     C_R   0.088568 0.751529 0.437140 0.000000
C26   C     C_R   0.077924 0.751741 0.384785 0.000000
N8    N     N_R   0.970291 0.752463 0.352851 0.000000
H12   H     H_    0.722715 0.675457 0.121383 0.000000
H13   H     H_    0.593103 0.688081 0.152410 0.000000
H14   H     H_    0.931376 0.668742 0.172321 0.000000
H15   H     H_    0.072927 0.702274 0.237410 0.000000
H16   H     H_    0.766668 0.774167 0.274767 0.000000
H17   H     H_    0.627038 0.747266 0.207598 0.000000
H18   H     H_    0.377651 0.737870 0.368836 0.000000
H19   H     H_    0.433870 0.734481 0.507346 0.000000
H20   H     H_    0.507329 0.734966 0.451374 0.000000
H21   H     H_    0.220100 0.748688 0.505680 0.000000
H22   H     H_    0.006350 0.753315 0.456487 0.000000
N9    N     N_2   0.626124 0.183063 0.037014 0.000000
C27   C     C_R   0.521771 0.190303 0.061413 0.000000
C28   C     C_R   0.474706 0.146907 0.097327 0.000000
C29   C     C_R   0.378004 0.153563 0.124870 0.000000
C30   C     C_R   0.330432 0.203785 0.116041 0.000000
C31   C     C_R   0.357968 0.244602 0.071591 0.000000
C32   C     C_R   0.457875 0.238248 0.044978 0.000000
C33   C     C_R   0.251576 0.212894 0.153820 0.000000
N10   N     N_R   0.231642 0.173705 0.202359 0.000000
C34   C     C_R   0.173361 0.204247 0.225307 0.000000
C35   C     C_R   0.124137 0.188892 0.272666 0.000000
C36   C     C_R   0.085630 0.229496 0.290075 0.000000
N11   N     N_2   0.005208 0.219642 0.329769 0.000000
C37   C     C_R   0.135574 0.279662 0.270774 0.000000
C38   C     C_R   0.174565 0.294875 0.221044 0.000000
C39   C     C_R   0.170684 0.256931 0.196119 0.000000
N12   N     N_R   0.210290 0.264833 0.148872 0.000000
H23   H     H_    0.667631 0.146007 0.055761 0.000000
H24   H     H_    0.685594 0.215177 0.030923 0.000000
H25   H     H_    0.501680 0.108813 0.095820 0.000000
H26   H     H_    0.328773 0.120993 0.149897 0.000000
H27   H     H_    0.289740 0.276429 0.053869 0.000000
H28   H     H_    0.476867 0.265651 0.007302 0.000000
H29   H     H_    0.116932 0.148646 0.296451 0.000000
H30   H     H_    0.967090 0.254653 0.331917 0.000000
H31   H     H_    0.944754 0.187894 0.330296 0.000000
H32   H     H_    0.158098 0.302076 0.297710 0.000000
H33   H     H_    0.230647 0.329146 0.205140 0.000000
N13   N     N_2   0.946459 0.327168 0.366598 0.000000
C40   C     C_R   0.014504 0.346246 0.322797 0.000000
C41   C     C_R   0.965176 0.342179 0.273321 0.000000
C42   C     C_R   0.028570 0.362370 0.229207 0.000000
C43   C     C_R   0.142930 0.386385 0.235461 0.000000
C44   C     C_R   0.194444 0.388939 0.285437 0.000000
C45   C     C_R   0.129098 0.370404 0.328999 0.000000
C46   C     C_R   0.205563 0.418344 0.190608 0.000000
N14   N     N_R   0.222391 0.409638 0.141671 0.000000
C47   C     C_R   0.286394 0.456088 0.119297 0.000000
C48   C     C_R   0.358988 0.467565 0.078066 0.000000
C49   C     C_R   0.413578 0.518227 0.061666 0.000000
N15   N     N_2   0.481790 0.531787 0.017209 0.000000
C50   C     C_R   0.411250 0.553993 0.091379 0.000000
C51   C     C_R   0.360077 0.537923 0.138880 0.000000
C52   C     C_R   0.300852 0.488921 0.151496 0.000000
N16   N     N_R   0.257008 0.465046 0.197293 0.000000
H34   H     H_    0.851375 0.322745 0.357671 0.000000
H35   H     H_    0.979153 0.341508 0.398024 0.000000
H36   H     H_    0.875660 0.323936 0.269439 0.000000
H37   H     H_    0.986494 0.361811 0.189951 0.000000
H38   H     H_    0.285594 0.406427 0.290424 0.000000
H39   H     H_    0.169665 0.372718 0.367922 0.000000
H40   H     H_    0.382921 0.437579 0.061327 0.000000
H41   H     H_    0.544330 0.562834 0.016717 0.000000
H42   H     H_    0.515221 0.499194 0.008290 0.000000
H43   H     H_    0.458091 0.592495 0.079571 0.000000
H44   H     H_    0.366627 0.562950 0.165374 0.000000
N17   N     N_2   0.770223 0.598874 0.385779 0.000000
C53   C     C_R   0.649707 0.599863 0.357213 0.000000
C54   C     C_R   0.555167 0.629774 0.365890 0.000000
C55   C     C_R   0.436944 0.631719 0.337576 0.000000
C56   C     C_R   0.413792 0.603173 0.301296 0.000000
C57   C     C_R   0.505884 0.570412 0.295054 0.000000
C58   C     C_R   0.624037 0.568761 0.322981 0.000000
C59   C     C_R   0.297218 0.611366 0.265295 0.000000
N18   N     N_R   0.249564 0.662412 0.240569 0.000000
C60   C     C_R   0.182694 0.657014 0.195777 0.000000
C61   C     C_R   0.126460 0.697174 0.153262 0.000000
C62   C     C_R   0.070104 0.682752 0.109252 0.000000
N19   N     N_2   0.010562 0.722454 0.064773 0.000000
C63   C     C_R   0.074141 0.629525 0.108228 0.000000
C64   C     C_R   0.133538 0.589922 0.151287 0.000000
C65   C     C_R   0.185369 0.604794 0.195075 0.000000
N20   N     N_R   0.254019 0.574188 0.239480 0.000000
H45   H     H_    0.784754 0.628816 0.404154 0.000000
H46   H     H_    0.841935 0.591218 0.366542 0.000000
H47   H     H_    0.579350 0.655580 0.391043 0.000000
H48   H     H_    0.364895 0.658009 0.340819 0.000000
H49   H     H_    0.487727 0.548619 0.265781 0.000000
H50   H     H_    0.697591 0.544892 0.316369 0.000000
H51   H     H_    0.125633 0.738562 0.153785 0.000000
H52   H     H_    0.945548 0.707180 0.040900 0.000000
H53   H     H_    0.983475 0.756155 0.073655 0.000000
H54   H     H_    0.032933 0.619187 0.072977 0.000000
H55   H     H_    0.144946 0.549725 0.148904 0.000000
N21   N     N_2   0.759643 0.343421 0.517063 0.000000
C66   C     C_R   0.676755 0.334456 0.554731 0.000000
C67   C     C_R   0.675996 0.368661 0.585431 0.000000
C68   C     C_R   0.606661 0.355371 0.627011 0.000000
C69   C     C_R   0.546661 0.307503 0.639932 0.000000
C70   C     C_R   0.552120 0.272032 0.610873 0.000000
C71   C     C_R   0.617435 0.285768 0.567717 0.000000
C72   C     C_R   0.476925 0.296493 0.684668 0.000000
N22   N     N_R   0.444664 0.337102 0.705630 0.000000
C73   C     C_R   0.379835 0.308200 0.743795 0.000000
C74   C     C_R   0.322421 0.329595 0.774554 0.000000
C75   C     C_R   0.279934 0.296085 0.818270 0.000000
N23   N     N_2   0.245463 0.320290 0.854875 0.000000
C76   C     C_R   0.284124 0.240413 0.827957 0.000000
C77   C     C_R   0.331610 0.218674 0.791901 0.000000
C78   C     C_R   0.376878 0.254553 0.748206 0.000000
N24   N     N_R   0.430274 0.245394 0.708015 0.000000
H56   H     H_    0.802782 0.379634 0.513145 0.000000
H57   H     H_    0.821460 0.312458 0.532558 0.000000
H58   H     H_    0.735387 0.403506 0.579793 0.000000
H59   H     H_    0.596652 0.381192 0.650625 0.000000
H60   H     H_    0.506207 0.234174 0.621249 0.000000
H61   H     H_    0.628129 0.257850 0.545267 0.000000
H62   H     H_    0.316492 0.371937 0.765967 0.000000
H63   H     H_    0.265039 0.297566 0.893281 0.000000
H64   H     H_    0.160167 0.338999 0.842458 0.000000
H65   H     H_    0.248137 0.214287 0.862931 0.000000
H66   H     H_    0.341733 0.175574 0.801120 0.000000
N25   N     N_2   0.999486 0.038986 0.839417 0.000000
C79   C     C_R   0.027106 0.074341 0.790285 0.000000
C80   C     C_R   0.947775 0.077664 0.744055 0.000000
C81   C     C_R   0.978368 0.110337 0.695597 0.000000
C82   C     C_R   0.086479 0.140920 0.693312 0.000000
C83   C     C_R   0.165279 0.137113 0.739355 0.000000
C84   C     C_R   0.135342 0.104718 0.787925 0.000000
C85   C     C_R   0.141684 0.157800 0.643402 0.000000
N26   N     N_R   0.074341 0.142886 0.601035 0.000000
C86   C     C_R   0.156962 0.107708 0.594675 0.000000
C87   C     C_R   0.123465 0.061401 0.581290 0.000000
C88   C     C_R   0.208107 0.018718 0.597336 0.000000
N27   N     N_2   0.169583 0.968227 0.591448 0.000000
C89   C     C_R   0.326555 0.023706 0.623525 0.000000
C90   C     C_R   0.361178 0.070919 0.635443 0.000000
C91   C     C_R   0.272751 0.111132 0.623026 0.000000
N28   N     N_R   0.269225 0.146940 0.650508 0.000000
H67   H     H_    0.905531 0.029859 0.840499 0.000000
H68   H     H_    0.045984 0.048016 0.872233 0.000000
H69   H     H_    0.866566 0.051709 0.745212 0.000000
H70   H     H_    0.925944 0.106716 0.659114 0.000000
H71   H     H_    0.255907 0.155889 0.735546 0.000000
H72   H     H_    0.200419 0.100856 0.823477 0.000000
H73   H     H_    0.028745 0.055564 0.564872 0.000000
H74   H     H_    0.241592 0.941322 0.596114 0.000000
H75   H     H_    0.094761 0.969577 0.562525 0.000000
H76   H     H_    0.390279 0.989582 0.636658 0.000000
H77   H     H_    0.448322 0.073043 0.660254 0.000000
N29   N     N_2   0.209513 0.091907 0.492680 0.000000
C92   C     C_R   0.326469 0.104794 0.515624 0.000000
C93   C     C_R   0.409723 0.064499 0.544454 0.000000
C94   C     C_R   0.510449 0.076017 0.577034 0.000000
C95   C     C_R   0.529740 0.128259 0.578724 0.000000
C96   C     C_R   0.450512 0.168996 0.546754 0.000000
C97   C     C_R   0.349712 0.157278 0.514672 0.000000
C98   C     C_R   0.622565 0.139980 0.618835 0.000000
N30   N     N_R   0.747952 0.150004 0.611593 0.000000
C99   C     C_R   0.784708 0.173185 0.650050 0.000000
C100  C     C_R   0.894770 0.197706 0.655760 0.000000
C101  C     C_R   0.909381 0.228855 0.690522 0.000000
N31   N     N_2   0.025930 0.251111 0.702912 0.000000
C102  C     C_R   0.806862 0.239224 0.712785 0.000000
C103  C     C_R   0.699171 0.209663 0.710561 0.000000
C104  C     C_R   0.691056 0.176857 0.678367 0.000000
N32   N     N_R   0.586298 0.155842 0.660601 0.000000
H78   H     H_    0.191195 0.051212 0.505528 0.000000
H79   H     H_    0.141875 0.116394 0.498184 0.000000
H80   H     H_    0.390041 0.023373 0.544898 0.000000
H81   H     H_    0.567319 0.043546 0.604197 0.000000
H82   H     H_    0.462996 0.209771 0.548541 0.000000
H83   H     H_    0.285612 0.188810 0.490215 0.000000
H84   H     H_    0.955421 0.195093 0.628338 0.000000
H85   H     H_    0.019449 0.280740 0.720667 0.000000
H86   H     H_    0.095683 0.222921 0.720014 0.000000
H87   H     H_    0.809527 0.271381 0.730474 0.000000
H88   H     H_    0.622665 0.215137 0.730856 0.000000
N33   N     N_2   0.988863 0.240703 0.804724 0.000000
C105  C     C_R   0.877597 0.210653 0.807271 0.000000
C106  C     C_R   0.774096 0.227103 0.825038 0.000000
C107  C     C_R   0.667721 0.196023 0.829007 0.000000
C108  C     C_R   0.662749 0.150934 0.811881 0.000000
C109  C     C_R   0.761104 0.137477 0.789444 0.000000
C110  C     C_R   0.869269 0.167276 0.787505 0.000000
C111  C     C_R   0.552968 0.117299 0.816023 0.000000
N34   N     N_R   0.469547 0.116502 0.771965 0.000000
C112  C     C_R   0.393087 0.076211 0.791985 0.000000
C113  C     C_R   0.293392 0.058065 0.764089 0.000000
C114  C     C_R   0.216364 0.019957 0.792884 0.000000
N35   N     N_2   0.114348 0.999007 0.766163 0.000000
C115  C     C_R   0.237569 0.003468 0.848209 0.000000
C116  C     C_R   0.341793 0.021569 0.874964 0.000000
C117  C     C_R   0.423600 0.056033 0.845997 0.000000
N36   N     N_R   0.528096 0.080438 0.863353 0.000000
H89   H     H_    0.996604 0.265092 0.828893 0.000000
H90   H     H_    0.067577 0.218792 0.805291 0.000000
H91   H     H_    0.776735 0.261701 0.839682 0.000000
H92   H     H_    0.588504 0.207035 0.845327 0.000000
H93   H     H_    0.753628 0.102960 0.774386 0.000000
H94   H     H_    0.946792 0.158079 0.769289 0.000000
H95   H     H_    0.276534 0.072313 0.721056 0.000000
H96   H     H_    0.042654 0.984247 0.788962 0.000000
H97   H     H_    0.089074 0.021808 0.727208 0.000000
H98   H     H_    0.170680 0.976687 0.870139 0.000000
H99   H     H_    0.354468 0.011399 0.916781 0.000000
N37   N     N_2   0.020343 0.501658 0.759141 0.000000
C118  C     C_R   0.913547 0.473387 0.778309 0.000000
C119  C     C_R   0.915170 0.417585 0.800101 0.000000
C120  C     C_R   0.810096 0.391364 0.820340 0.000000
C121  C     C_R   0.703036 0.420265 0.814969 0.000000
C122  C     C_R   0.699840 0.475245 0.791639 0.000000
C123  C     C_R   0.805804 0.502081 0.774525 0.000000
C124  C     C_R   0.585885 0.394776 0.828640 0.000000
N38   N     N_R   0.558325 0.377544 0.881207 0.000000
C125  C     C_R   0.435857 0.390331 0.875033 0.000000
C126  C     C_R   0.351432 0.371374 0.911036 0.000000
C127  C     C_R   0.228553 0.388681 0.895721 0.000000
N39   N     N_2   0.133481 0.361025 0.925116 0.000000
C128  C     C_R   0.194409 0.424666 0.845704 0.000000
C129  C     C_R   0.274306 0.433280 0.806986 0.000000
C130  C     C_R   0.394489 0.414983 0.823058 0.000000
N40   N     N_R   0.483182 0.414050 0.791795 0.000000
H100  H     H_    0.066572 0.482444 0.738314 0.000000
H101  H     H_    0.002007 0.541802 0.739676 0.000000
H102  H     H_    0.997322 0.393983 0.801764 0.000000
H103  H     H_    0.807168 0.348471 0.838605 0.000000
H104  H     H_    0.613417 0.497364 0.787141 0.000000
H105  H     H_    0.803497 0.545406 0.756934 0.000000
H106  H     H_    0.372564 0.336751 0.945026 0.000000
H107  H     H_    0.159416 0.335112 0.962701 0.000000
H108  H     H_    0.043130 0.375389 0.912011 0.000000
H109  H     H_    0.102708 0.442838 0.836789 0.000000
H110  H     H_    0.244670 0.452396 0.765547 0.000000
N41   N     N_2   0.040019 0.274033 0.614960 0.000000
C131  C     C_R   0.058392 0.321832 0.628672 0.000000
C132  C     C_R   0.978696 0.364050 0.605707 0.000000
C133  C     C_R   0.013277 0.414543 0.608464 0.000000
C134  C     C_R   0.132657 0.422167 0.630706 0.000000
C135  C     C_R   0.200552 0.378334 0.660730 0.000000
C136  C     C_R   0.160424 0.327506 0.662746 0.000000
C137  C     C_R   0.174944 0.472958 0.638861 0.000000
N42   N     N_R   0.093442 0.517230 0.626186 0.000000
C138  C     C_R   0.149271 0.545184 0.658296 0.000000
C139  C     C_R   0.100690 0.589345 0.667588 0.000000
C140  C     C_R   0.162005 0.607121 0.708692 0.000000
N43   N     N_2   0.113894 0.651698 0.720202 0.000000
C141  C     C_R   0.267980 0.580107 0.739993 0.000000
C142  C     C_R   0.317637 0.536137 0.729520 0.000000
C143  C     C_R   0.258080 0.519648 0.687483 0.000000
N44   N     N_R   0.281784 0.474227 0.674569 0.000000
H111  H     H_    0.975927 0.274031 0.582794 0.000000
H112  H     H_    0.112364 0.246756 0.628836 0.000000
H113  H     H_    0.888667 0.355430 0.588743 0.000000
H114  H     H_    0.945115 0.446128 0.597201 0.000000
H115  H     H_    0.279398 0.385775 0.685231 0.000000
H116  H     H_    0.211898 0.292738 0.688385 0.000000
H117  H     H_    0.014608 0.608372 0.644939 0.000000
H118  H     H_    0.141381 0.652773 0.758685 0.000000
H119  H     H_    0.020377 0.659458 0.706104 0.000000
H120  H     H_    0.312216 0.593572 0.772959 0.000000
H121  H     H_    0.396764 0.514150 0.755600 0.000000
N45   N     N_2   0.426454 0.701283 0.597827 0.000000
C144  C     C_R   0.474583 0.649808 0.603384 0.000000
C145  C     C_R   0.557998 0.642679 0.570194 0.000000
C146  C     C_R   0.606311 0.592151 0.577063 0.000000
C147  C     C_R   0.576134 0.549761 0.618824 0.000000
C148  C     C_R   0.488106 0.556215 0.649743 0.000000
C149  C     C_R   0.435867 0.606099 0.641745 0.000000
C150  C     C_R   0.648553 0.500198 0.638206 0.000000
N46   N     N_R   0.773537 0.496269 0.630913 0.000000
C151  C     C_R   0.807451 0.450324 0.669799 0.000000
C152  C     C_R   0.922872 0.428625 0.685657 0.000000
C153  C     C_R   0.939347 0.379578 0.722634 0.000000
N47   N     N_2   0.062094 0.359133 0.738244 0.000000
C154  C     C_R   0.839759 0.354288 0.748225 0.000000
C155  C     C_R   0.722503 0.378687 0.735731 0.000000
C156  C     C_R   0.710887 0.427397 0.696490 0.000000
N48   N     N_R   0.606442 0.456586 0.676877 0.000000
H122  H     H_    0.491803 0.731333 0.588728 0.000000
H123  H     H_    0.377906 0.702034 0.628877 0.000000
H124  H     H_    0.584383 0.676145 0.538308 0.000000
H125  H     H_    0.667321 0.585559 0.550250 0.000000
H126  H     H_    0.468539 0.521971 0.682350 0.000000
H127  H     H_    0.369359 0.612141 0.666748 0.000000
H128  H     H_    0.000677 0.451370 0.675590 0.000000
H129  H     H_    0.127283 0.389433 0.735118 0.000000
H130  H     H_    0.072517 0.327910 0.772771 0.000000
H131  H     H_    0.857273 0.317766 0.779851 0.000000
H132  H     H_    0.643522 0.360274 0.756094 0.000000
N49   N     N_2   0.239144 0.232229 0.386374 0.000000
C157  C     C_R   0.145062 0.194963 0.405130 0.000000
C158  C     C_R   0.039343 0.212717 0.419423 0.000000
C159  C     C_R   0.940645 0.178202 0.432648 0.000000
C160  C     C_R   0.951760 0.125047 0.437192 0.000000
C161  C     C_R   0.054108 0.107601 0.420664 0.000000
C162  C     C_R   0.150028 0.142620 0.403177 0.000000
C163  C     C_R   0.870414 0.087178 0.470645 0.000000
N50   N     N_R   0.847163 0.093419 0.519082 0.000000
C164  C     C_R   0.797037 0.045243 0.542570 0.000000
C165  C     C_R   0.766542 0.026933 0.593771 0.000000
C166  C     C_R   0.718736 0.975144 0.610441 0.000000
N51   N     N_2   0.685380 0.954712 0.662651 0.000000
C167  C     C_R   0.704100 0.942990 0.576164 0.000000
C168  C     C_R   0.738110 0.961802 0.524866 0.000000
C169  C     C_R   0.785654 0.013079 0.509286 0.000000
N52   N     N_R   0.830045 0.038310 0.462715 0.000000
H133  H     H_    0.217108 0.270700 0.385879 0.000000
H134  H     H_    0.263290 0.230145 0.350468 0.000000
H135  H     H_    0.035305 0.253262 0.421477 0.000000
H136  H     H_    0.854500 0.190700 0.441500 0.000000
H137  H     H_    0.069044 0.065658 0.431263 0.000000
H138  H     H_    0.232620 0.127956 0.392069 0.000000
H139  H     H_    0.779009 0.052052 0.620195 0.000000
H140  H     H_    0.683735 0.913223 0.676282 0.000000
H141  H     H_    0.729084 0.973950 0.688967 0.000000
H142  H     H_    0.667479 0.902572 0.590010 0.000000
H143  H     H_    0.730397 0.936411 0.498736 0.000000
N53   N     N_2   0.320567 0.269051 0.610849 0.000000
C170  C     C_R   0.237515 0.278043 0.564332 0.000000
C171  C     C_R   0.202096 0.235250 0.546186 0.000000
C172  C     C_R   0.094249 0.238686 0.512203 0.000000
C173  C     C_R   0.024896 0.285742 0.494652 0.000000
C174  C     C_R   0.060311 0.328465 0.513390 0.000000
C175  C     C_R   0.169415 0.325167 0.547289 0.000000
C176  C     C_R   0.895682 0.279858 0.476056 0.000000
N54   N     N_R   0.839163 0.231501 0.499743 0.000000
C177  C     C_R   0.721741 0.240250 0.474732 0.000000
C178  C     C_R   0.631114 0.201853 0.476358 0.000000
C179  C     C_R   0.523586 0.215758 0.440686 0.000000
N55   N     N_2   0.437930 0.174765 0.435706 0.000000
C180  C     C_R   0.504985 0.268686 0.407516 0.000000
C181  C     C_R   0.595868 0.307909 0.408386 0.000000
C182  C     C_R   0.706176 0.292025 0.441158 0.000000
N56   N     N_R   0.813694 0.320512 0.442164 0.000000
H144  H     H_    0.312037 0.231806 0.637190 0.000000
H145  H     H_    0.311853 0.299778 0.626270 0.000000
H146  H     H_    0.248630 0.197012 0.564652 0.000000
H147  H     H_    0.054047 0.201693 0.506997 0.000000
H148  H     H_    0.988548 0.356161 0.513750 0.000000
H149  H     H_    0.190274 0.355122 0.568041 0.000000
H150  H     H_    0.648166 0.160747 0.501239 0.000000
H151  H     H_    0.406835 0.177354 0.396673 0.000000
H152  H     H_    0.472444 0.137028 0.457205 0.000000
H153  H     H_    0.421078 0.279286 0.379420 0.000000
H154  H     H_    0.583857 0.348297 0.381257 0.000000
N57   N     N_2   0.255611 0.825437 0.590215 0.000000
C183  C     C_R   0.157577 0.836921 0.547578 0.000000
C184  C     C_R   0.180327 0.867911 0.497400 0.000000
C185  C     C_R   0.084555 0.879462 0.455263 0.000000
C186  C     C_R   0.965259 0.860344 0.463714 0.000000
C187  C     C_R   0.943527 0.828763 0.514043 0.000000
C188  C     C_R   0.039041 0.817056 0.555871 0.000000
C189  C     C_R   0.859489 0.873565 0.421013 0.000000
N58   N     N_R   0.803007 0.925117 0.401763 0.000000
C190  C     C_R   0.698304 0.913476 0.374352 0.000000
C191  C     C_R   0.633173 0.947423 0.330829 0.000000
C192  C     C_R   0.522416 0.928023 0.310839 0.000000
N59   N     N_2   0.445493 0.963626 0.269508 0.000000
C193  C     C_R   0.482103 0.876347 0.335657 0.000000
C194  C     C_R   0.567907 0.839945 0.370463 0.000000
C195  C     C_R   0.682864 0.859948 0.382892 0.000000
N60   N     N_R   0.789530 0.832948 0.405435 0.000000
H155  H     H_    0.328925 0.852337 0.584323 0.000000
H156  H     H_    0.224962 0.815253 0.627363 0.000000
H157  H     H_    0.274257 0.882604 0.491512 0.000000
H158  H     H_    0.103076 0.902227 0.415579 0.000000
H159  H     H_    0.850538 0.814084 0.521284 0.000000
H160  H     H_    0.020612 0.792675 0.595199 0.000000
H161  H     H_    0.669485 0.986884 0.312579 0.000000
H162  H     H_    0.418117 0.949301 0.237750 0.000000
H163  H     H_    0.489930 0.999748 0.259056 0.000000
H164  H     H_    0.388705 0.863356 0.324486 0.000000
H165  H     H_    0.547388 0.797816 0.385248 0.000000
N61   N     N_2   0.356245 0.834533 0.445275 0.000000
C196  C     C_R   0.397134 0.884942 0.416216 0.000000
C197  C     C_R   0.508798 0.905236 0.433010 0.000000
C198  C     C_R   0.545641 0.955122 0.404087 0.000000
C199  C     C_R   0.472174 0.983995 0.358353 0.000000
C200  C     C_R   0.355942 0.965389 0.343855 0.000000
C201  C     C_R   0.319981 0.914878 0.372614 0.000000
C202  C     C_R   0.520426 0.035331 0.328723 0.000000
N62   N     N_R   0.633071 0.051881 0.350646 0.000000
C203  C     C_R   0.607567 0.104753 0.342534 0.000000
C204  C     C_R   0.677691 0.141843 0.361622 0.000000
C205  C     C_R   0.628329 0.193446 0.349910 0.000000
N63   N     N_2   0.699617 0.233936 0.365261 0.000000
C206  C     C_R   0.509007 0.206017 0.322634 0.000000
C207  C     C_R   0.439480 0.168124 0.304235 0.000000
C208  C     C_R   0.492909 0.118812 0.312916 0.000000
N64   N     N_R   0.439704 0.077064 0.298452 0.000000
H166  H     H_    0.395288 0.823447 0.484716 0.000000
H167  H     H_    0.260095 0.833927 0.438242 0.000000
H168  H     H_    0.567118 0.882205 0.468405 0.000000
H169  H     H_    0.633272 0.971573 0.416971 0.000000
H170  H     H_    0.295538 0.989872 0.309939 0.000000
H171  H     H_    0.232375 0.897411 0.361567 0.000000
H172  H     H_    0.766357 0.131375 0.385939 0.000000
H173  H     H_    0.661836 0.271796 0.346915 0.000000
H174  H     H_    0.792857 0.231250 0.361301 0.000000
H175  H     H_    0.470464 0.245868 0.315484 0.000000
H176  H     H_    0.345948 0.176909 0.283973 0.000000
N65   N     N_2   0.656660 0.160278 0.157810 0.000000
C209  C     C_R   0.751689 0.153465 0.200789 0.000000
C210  C     C_R   0.874251 0.160206 0.191480 0.000000
C211  C     C_R   0.966466 0.134048 0.230233 0.000000
C212  C     C_R   0.934365 0.106857 0.279146 0.000000
C213  C     C_R   0.817587 0.110330 0.291358 0.000000
C214  C     C_R   0.722627 0.130292 0.251166 0.000000
C215  C     C_R   0.016554 0.068995 0.318285 0.000000
N66   N     N_R   0.141890 0.062718 0.314287 0.000000
C216  C     C_R   0.178457 0.026384 0.362079 0.000000
C217  C     C_R   0.296055 0.021823 0.390443 0.000000
C218  C     C_R   0.311553 0.990024 0.443088 0.000000
N67   N     N_2   0.432856 0.981800 0.471726 0.000000
C219  C     C_R   0.207851 0.968947 0.468676 0.000000
C220  C     C_R   0.088447 0.977022 0.441182 0.000000
C221  C     C_R   0.076570 0.006290 0.388076 0.000000
N68   N     N_R   0.971899 0.033010 0.361482 0.000000
H177  H     H_    0.689705 0.179831 0.122296 0.000000
H178  H     H_    0.572837 0.172287 0.166011 0.000000
H179  H     H_    0.894759 0.180322 0.152536 0.000000
H180  H     H_    0.059397 0.130056 0.221749 0.000000
H181  H     H_    0.806755 0.090463 0.331797 0.000000
H182  H     H_    0.626448 0.120792 0.255403 0.000000
H183  H     H_    0.369546 0.048984 0.376202 0.000000
H184  H     H_    0.435850 0.961927 0.511891 0.000000
H185  H     H_    0.494322 0.013155 0.459904 0.000000
H186  H     H_    0.219839 0.950029 0.511295 0.000000
H187  H     H_    0.006570 0.965167 0.461979 0.000000
N69   N     N_2   0.583542 0.837874 0.913789 0.000000
C222  C     C_R   0.536285 0.874223 0.937182 0.000000
C223  C     C_R   0.409824 0.886604 0.928117 0.000000
C224  C     C_R   0.362828 0.920654 0.952696 0.000000
C225  C     C_R   0.441955 0.942945 0.986320 0.000000
C226  C     C_R   0.569180 0.931819 0.993581 0.000000
C227  C     C_R   0.615882 0.896759 0.970030 0.000000
C228  C     C_R   0.398599 0.987648 0.003521 0.000000
N70   N     N_R   0.290705 0.988107 0.028299 0.000000
C229  C     C_R   0.284123 0.039414 0.025978 0.000000
C230  C     C_R   0.195181 0.061308 0.045450 0.000000
C231  C     C_R   0.213936 0.112778 0.046101 0.000000
N71   N     N_2   0.117022 0.141408 0.054715 0.000000
C232  C     C_R   0.318727 0.139436 0.030853 0.000000
C233  C     C_R   0.408330 0.116142 0.011560 0.000000
C234  C     C_R   0.382952 0.067357 0.005834 0.000000
N72   N     N_R   0.456916 0.037624 0.988635 0.000000
H188  H     H_    0.530225 0.835691 0.879219 0.000000
H189  H     H_    0.679463 0.839473 0.913619 0.000000
H190  H     H_    0.347312 0.869338 0.902076 0.000000
H191  H     H_    0.264166 0.930901 0.944457 0.000000
H192  H     H_    0.632823 0.951063 0.017482 0.000000
H193  H     H_    0.715221 0.887406 0.976903 0.000000
H194  H     H_    0.110669 0.041220 0.057600 0.000000
H195  H     H_    0.136577 0.181152 0.051685 0.000000
H196  H     H_    0.044607 0.135885 0.028374 0.000000
H197  H     H_    0.318946 0.178005 0.035051 0.000000
H198  H     H_    0.500462 0.129554 0.007231 0.000000
N73   N     N_2   0.978446 0.218102 0.079962 0.000000
C235  C     C_R   0.928700 0.168610 0.074866 0.000000
C236  C     C_R   0.857887 0.167899 0.028453 0.000000
C237  C     C_R   0.826275 0.119400 0.018793 0.000000
C238  C     C_R   0.885710 0.073425 0.048308 0.000000
C239  C     C_R   0.958542 0.074078 0.094473 0.000000
C240  C     C_R   0.968397 0.120000 0.111097 0.000000
C241  C     C_R   0.872996 0.028483 0.024623 0.000000
N74   N     N_R   0.777053 0.030756 0.982044 0.000000
C242  C     C_R   0.813416 0.990359 0.964671 0.000000
C243  C     C_R   0.759025 0.976386 0.920666 0.000000
C244  C     C_R   0.818050 0.937004 0.906250 0.000000
N75   N     N_2   0.769266 0.923484 0.859743 0.000000
C245  C     C_R   0.927253 0.911811 0.936409 0.000000
C246  C     C_R   0.980452 0.925957 0.981052 0.000000
C247  C     C_R   0.922067 0.965515 0.994439 0.000000
N76   N     N_R   0.965073 0.987789 0.033500 0.000000
H199  H     H_    0.980813 0.247727 0.044105 0.000000
H200  H     H_    0.057699 0.213823 0.107163 0.000000
H201  H     H_    0.845750 0.205222 0.998057 0.000000
H202  H     H_    0.767118 0.114436 0.985721 0.000000
H203  H     H_    0.996877 0.037831 0.119345 0.000000
H204  H     H_    0.030133 0.119221 0.146607 0.000000
H205  H     H_    0.675558 0.996835 0.896861 0.000000
H206  H     H_    0.803796 0.887887 0.857241 0.000000
H207  H     H_    0.674283 0.930507 0.849076 0.000000
H208  H     H_    0.972221 0.881395 0.924351 0.000000
H209  H     H_    0.066659 0.907282 0.003870 0.000000
N77   N     N_2   0.052656 0.111014 0.940661 0.000000
C248  C     C_R   0.165768 0.140603 0.937822 0.000000
C249  C     C_R   0.181461 0.188274 0.951605 0.000000
C250  C     C_R   0.297080 0.214853 0.949827 0.000000
C251  C     C_R   0.398212 0.191863 0.936826 0.000000
C252  C     C_R   0.374833 0.147531 0.918329 0.000000
C253  C     C_R   0.262293 0.121582 0.919800 0.000000
C254  C     C_R   0.534035 0.203980 0.944723 0.000000
N78   N     N_R   0.597666 0.252140 0.947426 0.000000
C255  C     C_R   0.706170 0.243338 0.930982 0.000000
C256  C     C_R   0.805096 0.277618 0.923276 0.000000
C257  C     C_R   0.913862 0.258031 0.912989 0.000000
N79   N     N_2   0.016204 0.292067 0.903780 0.000000
C258  C     C_R   0.919382 0.207558 0.905499 0.000000
C259  C     C_R   0.817419 0.174077 0.911840 0.000000
C260  C     C_R   0.714408 0.192588 0.926594 0.000000
N80   N     N_R   0.611153 0.164408 0.939223 0.000000
H210  H     H_    0.984110 0.122308 0.958868 0.000000
H211  H     H_    0.064538 0.070249 0.947388 0.000000
H212  H     H_    0.105744 0.203087 0.966869 0.000000
H213  H     H_    0.310294 0.247417 0.967513 0.000000
H214  H     H_    0.446256 0.131476 0.902984 0.000000
H215  H     H_    0.250577 0.085117 0.908124 0.000000
H216  H     H_    0.799157 0.318242 0.925272 0.000000
H217  H     H_    0.090918 0.270602 0.900361 0.000000
H218  H     H_    0.990394 0.323355 0.870219 0.000000
H219  H     H_    0.001694 0.195150 0.892724 0.000000
H220  H     H_    0.816854 0.135275 0.904293 0.000000
N81   N     N_2   0.395771 0.661290 0.456563 0.000000
C261  C     C_R   0.268134 0.658643 0.462591 0.000000
C262  C     C_R   0.181225 0.655457 0.420589 0.000000
C263  C     C_R   0.056408 0.650470 0.427033 0.000000
C264  C     C_R   0.020015 0.646099 0.476042 0.000000
C265  C     C_R   0.106296 0.651428 0.517543 0.000000
C266  C     C_R   0.231062 0.657920 0.510836 0.000000
C267  C     C_R   0.890233 0.644436 0.484659 0.000000
N82   N     N_R   0.825904 0.693130 0.464183 0.000000
C268  C     C_R   0.777371 0.697606 0.507281 0.000000
C269  C     C_R   0.724275 0.742909 0.512497 0.000000
C270  C     C_R   0.698943 0.741807 0.563125 0.000000
N83   N     N_2   0.652301 0.788447 0.571444 0.000000
C271  C     C_R   0.720045 0.694879 0.605967 0.000000
C272  C     C_R   0.770793 0.649010 0.599434 0.000000
C273  C     C_R   0.802283 0.652168 0.549756 0.000000
N84   N     N_R   0.866123 0.615479 0.535750 0.000000
H221  H     H_    0.412804 0.652624 0.422819 0.000000
H222  H     H_    0.451013 0.641580 0.491021 0.000000
H223  H     H_    0.210181 0.655403 0.383013 0.000000
H224  H     H_    0.989087 0.646923 0.394727 0.000000
H225  H     H_    0.075536 0.650606 0.555272 0.000000
H226  H     H_    0.299137 0.661411 0.543268 0.000000
H227  H     H_    0.705951 0.778475 0.478598 0.000000
H228  H     H_    0.670597 0.789803 0.610275 0.000000
H229  H     H_    0.664340 0.823681 0.541794 0.000000
H230  H     H_    0.698637 0.694539 0.645047 0.000000
H231  H     H_    0.791007 0.613193 0.632922 0.000000
N85   N     N_2   0.598921 0.472920 0.098150 0.000000
C274  C     C_R   0.587531 0.461375 0.152994 0.000000
C275  C     C_R   0.664380 0.487151 0.183635 0.000000
C276  C     C_R   0.656905 0.474826 0.237718 0.000000
C277  C     C_R   0.570236 0.437768 0.261240 0.000000
C278  C     C_R   0.494725 0.411366 0.230789 0.000000
C279  C     C_R   0.505465 0.422067 0.177136 0.000000
C280  C     C_R   0.537091 0.438428 0.312924 0.000000
N86   N     N_R   0.628064 0.439067 0.355686 0.000000
C281  C     C_R   0.572385 0.472533 0.376530 0.000000
C282  C     C_R   0.633123 0.503690 0.404757 0.000000
C283  C     C_R   0.562613 0.535946 0.423518 0.000000
N87   N     N_2   0.619031 0.560168 0.461875 0.000000
C284  C     C_R   0.439227 0.547772 0.401028 0.000000
C285  C     C_R   0.383538 0.522942 0.364218 0.000000
C286  C     C_R   0.452533 0.484871 0.353506 0.000000
N88   N     N_R   0.425873 0.464514 0.312670 0.000000
H232  H     H_    0.671714 0.498469 0.085506 0.000000
H233  H     H_    0.585862 0.440219 0.083665 0.000000
H234  H     H_    0.730194 0.517263 0.165217 0.000000
H235  H     H_    0.713409 0.496963 0.260964 0.000000
H236  H     H_    0.425431 0.382834 0.248596 0.000000
H237  H     H_    0.447051 0.399973 0.154555 0.000000
H238  H     H_    0.731724 0.509672 0.403318 0.000000
H239  H     H_    0.572303 0.592780 0.464938 0.000000
H240  H     H_    0.715692 0.559431 0.467928 0.000000
H241  H     H_    0.384721 0.574846 0.413483 0.000000
H242  H     H_    0.292367 0.535999 0.341670 0.000000
N89   N     N_2   0.240927 0.559222 0.487439 0.000000
C287  C     C_R   0.198706 0.532942 0.449552 0.000000
C288  C     C_R   0.275839 0.497072 0.439094 0.000000
C289  C     C_R   0.228482 0.467932 0.405244 0.000000
C290  C     C_R   0.109058 0.479227 0.378906 0.000000
C291  C     C_R   0.031202 0.513385 0.390782 0.000000
C292  C     C_R   0.074829 0.539036 0.427606 0.000000
C293  C     C_R   0.057363 0.451742 0.341893 0.000000
N90   N     N_R   0.100141 0.463193 0.293052 0.000000
C294  C     C_R   0.002428 0.448257 0.263478 0.000000
C295  C     C_R   0.986632 0.456475 0.209546 0.000000
C296  C     C_R   0.877313 0.438467 0.187525 0.000000
N91   N     N_2   0.854959 0.449743 0.131711 0.000000
C297  C     C_R   0.789607 0.410324 0.219966 0.000000
C298  C     C_R   0.803535 0.405351 0.273900 0.000000
C299  C     C_R   0.908920 0.427059 0.293780 0.000000
N92   N     N_R   0.939755 0.428343 0.344084 0.000000
H243  H     H_    0.332507 0.572195 0.488376 0.000000
H244  H     H_    0.170421 0.581202 0.493672 0.000000
H245  H     H_    0.362936 0.484046 0.464923 0.000000
H246  H     H_    0.285290 0.437481 0.398510 0.000000
H247  H     H_    0.934584 0.517665 0.372752 0.000000
H248  H     H_    0.010567 0.562449 0.440219 0.000000
H249  H     H_    0.051640 0.478987 0.184024 0.000000
H250  H     H_    0.785412 0.426845 0.119326 0.000000
H251  H     H_    0.935380 0.454666 0.113207 0.000000
H252  H     H_    0.709165 0.392818 0.203415 0.000000
H253  H     H_    0.736340 0.383911 0.299720 0.000000
N93   N     N_2   0.399689 0.373506 0.565922 0.000000
C300  C     C_R   0.486196 0.408259 0.537970 0.000000
C301  C     C_R   0.544690 0.447787 0.557441 0.000000
C302  C     C_R   0.636960 0.478267 0.531509 0.000000
C303  C     C_R   0.685688 0.460954 0.494115 0.000000
C304  C     C_R   0.623480 0.423541 0.472736 0.000000
C305  C     C_R   0.519620 0.398805 0.493249 0.000000
C306  C     C_R   0.814398 0.472111 0.485059 0.000000
N94   N     N_R   0.898769 0.494971 0.516074 0.000000
C307  C     C_R   0.007574 0.479934 0.504675 0.000000
C308  C     C_R   0.121688 0.485840 0.528939 0.000000
C309  C     C_R   0.217684 0.455248 0.524420 0.000000
N95   N     N_2   0.331819 0.458382 0.554987 0.000000
C310  C     C_R   0.199556 0.420501 0.492745 0.000000
C311  C     C_R   0.086379 0.421507 0.461522 0.000000
C312  C     C_R   0.990532 0.450687 0.469596 0.000000
N96   N     N_R   0.868666 0.447776 0.453115 0.000000
H254  H     H_    0.400044 0.373515 0.604881 0.000000
H255  H     H_    0.399106 0.338179 0.556208 0.000000
H256  H     H_    0.524277 0.452762 0.594519 0.000000
H257  H     H_    0.688840 0.506602 0.547964 0.000000
H258  H     H_    0.665095 0.407647 0.445532 0.000000
H259  H     H_    0.475415 0.366909 0.478867 0.000000
H260  H     H_    0.135850 0.512708 0.551734 0.000000
H261  H     H_    0.366709 0.496823 0.544983 0.000000
H262  H     H_    0.319100 0.448677 0.594659 0.000000
H263  H     H_    0.275834 0.396736 0.488253 0.000000
H264  H     H_    0.071085 0.396374 0.435395 0.000000
N97   N     N_2   0.778859 0.043173 0.130131 0.000000
C313  C     C_R   0.650830 0.046775 0.132938 0.000000
C314  C     C_R   0.611916 0.063443 0.173382 0.000000
C315  C     C_R   0.486958 0.062563 0.180292 0.000000
C316  C     C_R   0.401847 0.039600 0.149572 0.000000
C317  C     C_R   0.443702 0.018917 0.112661 0.000000
C318  C     C_R   0.565544 0.026025 0.100824 0.000000
C319  C     C_R   0.274552 0.026203 0.162641 0.000000
N98   N     N_R   0.227464 0.038217 0.204222 0.000000
C320  C     C_R   0.125395 0.006289 0.209457 0.000000
C321  C     C_R   0.025819 0.011760 0.233852 0.000000
C322  C     C_R   0.919918 0.981710 0.229222 0.000000
N99   N     N_2   0.816089 0.990706 0.253085 0.000000
C323  C     C_R   0.910338 0.949665 0.195033 0.000000
C324  C     C_R   0.008987 0.947249 0.167053 0.000000
C325  C     C_R   0.114832 0.976164 0.175219 0.000000
N100  N     N_R   0.198147 0.992029 0.140602 0.000000
H265  H     H_    0.834073 0.051347 0.161565 0.000000
H266  H     H_    0.802511 0.010131 0.119286 0.000000
H267  H     H_    0.680053 0.072572 0.202371 0.000000
H268  H     H_    0.458536 0.077226 0.211546 0.000000
H269  H     H_    0.389828 0.987189 0.103397 0.000000
H270  H     H_    0.597875 0.007677 0.072952 0.000000
H271  H     H_    0.021224 0.045868 0.246406 0.000000
H272  H     H_    0.830076 0.022307 0.269227 0.000000
H273  H     H_    0.734204 0.993451 0.228095 0.000000
H274  H     H_    0.824303 0.929645 0.186763 0.000000
H275  H     H_    0.999446 0.926645 0.136665 0.000000
N101  N     N_2   0.915929 0.914272 0.312585 0.000000
C326  C     C_R   0.982012 0.894433 0.279401 0.000000
C327  C     C_R   0.924805 0.860527 0.252262 0.000000
C328  C     C_R   0.985178 0.844078 0.216886 0.000000
C329  C     C_R   0.105529 0.860749 0.209505 0.000000
C330  C     C_R   0.164224 0.893588 0.237395 0.000000
C331  C     C_R   0.101447 0.911877 0.270968 0.000000
C332  C     C_R   0.169887 0.844198 0.171798 0.000000
N102  N     N_R   0.242392 0.797720 0.187170 0.000000
C333  C     C_R   0.301139 0.803163 0.143697 0.000000
C334  C     C_R   0.401884 0.774168 0.139426 0.000000
C335  C     C_R   0.460284 0.792439 0.093320 0.000000
N103  N     N_2   0.573636 0.768962 0.089242 0.000000
C336  C     C_R   0.413491 0.836896 0.052346 0.000000
C337  C     C_R   0.313866 0.866095 0.058139 0.000000
C338  C     C_R   0.262441 0.849105 0.104485 0.000000
N104  N     N_R   0.181606 0.877314 0.120631 0.000000
H276  H     H_    0.844876 0.889498 0.328208 0.000000
H277  H     H_    0.972969 0.929878 0.338763 0.000000
H278  H     H_    0.830243 0.849277 0.255825 0.000000
H279  H     H_    0.937273 0.819304 0.194104 0.000000
H280  H     H_    0.257209 0.907150 0.231012 0.000000
H281  H     H_    0.143716 0.941056 0.289289 0.000000
H282  H     H_    0.438607 0.740583 0.171953 0.000000
H283  H     H_    0.604101 0.785345 0.052358 0.000000
H284  H     H_    0.641717 0.770792 0.119830 0.000000
H285  H     H_    0.461463 0.850329 0.017579 0.000000
H286  H     H_    0.277061 0.901993 0.028969 0.000000
N105  N     N_2   0.442101 0.596122 0.878141 0.000000
C339  C     C_R   0.425867 0.542898 0.910311 0.000000
C340  C     C_R   0.334692 0.531508 0.944186 0.000000
C341  C     C_R   0.317646 0.479488 0.976000 0.000000
C342  C     C_R   0.393191 0.436718 0.973807 0.000000
C343  C     C_R   0.487715 0.450397 0.940978 0.000000
C344  C     C_R   0.503031 0.502310 0.909027 0.000000
C345  C     C_R   0.399943 0.379135 0.009090 0.000000
N106  N     N_R   0.342853 0.358411 0.055634 0.000000
C346  C     C_R   0.432450 0.325167 0.087341 0.000000
C347  C     C_R   0.437114 0.301102 0.140895 0.000000
C348  C     C_R   0.537080 0.267432 0.165557 0.000000
N107  N     N_2   0.542886 0.241516 0.220505 0.000000
C349  C     C_R   0.630563 0.259836 0.136609 0.000000
C350  C     C_R   0.619367 0.282278 0.081979 0.000000
C351  C     C_R   0.524082 0.318163 0.059791 0.000000
N108  N     N_R   0.504461 0.348814 0.009180 0.000000
H287  H     H_    0.530224 0.603478 0.866004 0.000000
H288  H     H_    0.405998 0.624994 0.891927 0.000000
H289  H     H_    0.275141 0.563651 0.945853 0.000000
H290  H     H_    0.242569 0.476011 0.000547 0.000000
H291  H     H_    0.555622 0.420310 0.942301 0.000000
H292  H     H_    0.577931 0.511307 0.883871 0.000000
H293  H     H_    0.374230 0.312556 0.164274 0.000000
H294  H     H_    0.596020 0.206815 0.233897 0.000000
H295  H     H_    0.455773 0.240697 0.232976 0.000000
H296  H     H_    0.717091 0.241133 0.157091 0.000000
H297  H     H_    0.693083 0.279702 0.058865 0.000000
N109  N     N_2   0.690528 0.302297 0.238475 0.000000
C352  C     C_R   0.747993 0.311802 0.191253 0.000000
C353  C     C_R   0.861819 0.288039 0.191590 0.000000
C354  C     C_R   0.906889 0.292951 0.143417 0.000000
C355  C     C_R   0.842718 0.323429 0.096043 0.000000
C356  C     C_R   0.738150 0.351893 0.096788 0.000000
C357  C     C_R   0.688202 0.344182 0.143859 0.000000
C358  C     C_R   0.893729 0.333532 0.045515 0.000000
N110  N     N_R   0.015923 0.353822 0.043242 0.000000
C359  C     C_R   0.005510 0.386371 0.992589 0.000000
C360  C     C_R   0.094765 0.420899 0.969822 0.000000
C361  C     C_R   0.058024 0.459513 0.920965 0.000000
N111  N     N_2   0.143883 0.497589 0.894999 0.000000
C362  C     C_R   0.934791 0.460540 0.896540 0.000000
C363  C     C_R   0.849424 0.421444 0.918063 0.000000
C364  C     C_R   0.887807 0.384215 0.965912 0.000000
N112  N     N_R   0.814465 0.348017 0.996278 0.000000
H298  H     H_    0.714540 0.266727 0.267864 0.000000
H299  H     H_    0.603025 0.319294 0.234608 0.000000
H300  H     H_    0.910286 0.262553 0.228500 0.000000
H301  H     H_    0.990139 0.272002 0.141978 0.000000
H302  H     H_    0.690497 0.377629 0.059817 0.000000
H303  H     H_    0.599324 0.361789 0.143224 0.000000
H304  H     H_    0.189959 0.408797 0.985505 0.000000
H305  H     H_    0.105413 0.521542 0.858137 0.000000
H306  H     H_    0.229904 0.481740 0.894475 0.000000
H307  H     H_    0.906380 0.491341 0.859422 0.000000
H308  H     H_    0.753073 0.422515 0.900166 0.000000

loop_
_geom_bond_atom_site_label_1
_geom_bond_atom_site_label_2
_geom_bond_distance
_geom_bond_site_symmetry_2
_ccdc_geom_bond_type
Zn1   N2    2.132 .      S
Zn1   N8    2.107 .      S
Zn1   N60   2.189 .      S
Zn1   N82   2.109 .      S
Zn2   N10   2.211 .      S
Zn2   N64   2.103 .      S
Zn2   N66   2.123 .      S
Zn2   N98   2.105 .      S
Zn3   N12   2.180 .      S
Zn3   N14   2.219 .      S
Zn3   N106  2.050 .      S
Zn3   N110  2.208 .      S
Zn4   N16   2.007 .      S
Zn4   N20   2.035 .      S
Zn4   N88   2.079 .      S
Zn4   N90   2.050 .      S
Zn5   N4    2.101 .      S
Zn5   N6    2.147 .      S
Zn5   N18   2.040 .      S
Zn5   N102  2.092 .      S
Zn6   N24   2.150 .      S
Zn6   N28   2.156 .      S
Zn6   N32   2.045 .      S
Zn6   N34   2.033 .      S
Zn7   N22   2.222 .      S
Zn7   N40   2.101 .      S
Zn7   N44   2.226 .      S
Zn7   N48   2.051 .      S
Zn8   N26   2.217 1_655  S
Zn8   N30   2.111 .      S
Zn8   N50   2.123 .      S
Zn8   N54   2.153 .      S
Zn9   N52   2.100 .      S
Zn9   N58   2.186 1_545  S
Zn9   N62   2.193 .      S
Zn9   N68   2.051 .      S
Zn10  N36   2.146 .      S
Zn10  N72   2.108 .      S
Zn10  N74   2.255 .      S
Zn10  N80   2.208 .      S
Zn11  N42   2.199 1_655  S
Zn11  N46   2.133 .      S
Zn11  N84   2.145 .      S
Zn11  N94   2.126 .      S
Zn12  N56   2.202 .      S
Zn12  N86   2.187 .      S
Zn12  N92   2.055 .      S
Zn12  N96   2.057 .      S
Zn13  N70   2.076 .      S
Zn13  N76   2.244 1_455  S
Zn13  N100  2.057 .      S
Zn13  N104  2.092 .      S
Zn14  N38   2.082 .      S
Zn14  N78   2.193 .      S
Zn14  N108  2.078 1_556  S
Zn14  N112  2.246 .      S
N1    C1    1.378 .      S
N1    H1    1.027 .      S
N1    H2    1.021 .      S
C2    H3    1.062 .      S
C3    H4    1.077 .      S
C4    C7    1.404 .      S
C5    H5    1.070 .      S
C6    H6    1.079 .      S
C9    H7    1.070 .      S
C10   N3    1.408 .      S
N3    H8    1.029 .      S
N3    H9    1.029 .      S
C11   H10   1.081 .      S
C12   H11   1.079 .      S
N5    C14   1.410 .      S
N5    H12   1.029 .      S
N5    H13   1.029 .      S
C15   H14   1.079 .      S
C16   H15   1.060 1_655  S
C17   C20   1.473 1_655  S
C18   H16   1.062 .      S
C19   H17   1.076 .      S
C20   C17   1.473 1_455  S
C22   H18   1.061 .      S
C23   N7    1.409 .      S
N7    H19   1.025 .      S
N7    H20   1.028 .      S
C24   H21   1.081 .      S
C25   H22   1.081 .      S
H15   C16   1.060 1_455  S
N9    C27   1.402 .      S
N9    H23   1.028 .      S
N9    H24   1.019 .      S
C28   H25   1.052 .      S
C29   H26   1.075 .      S
C30   C33   1.458 .      S
C31   H27   1.077 .      S
C32   H28   1.075 .      S
C35   H29   1.052 .      S
C36   N11   1.399 .      S
N11   H30   1.028 1_455  S
N11   H31   1.029 1_455  S
C37   H32   1.046 .      S
C38   H33   1.065 .      S
H30   N11   1.028 1_655  S
H31   N11   1.029 1_655  S
N13   C40   1.400 1_655  S
N13   H34   1.027 .      S
N13   H35   1.025 .      S
C40   N13   1.400 1_455  S
C41   H36   1.063 .      S
C42   H37   1.080 1_455  S
C43   C46   1.455 .      S
C44   H38   1.073 .      S
C45   H39   1.081 .      S
C48   H40   1.054 .      S
C49   N15   1.409 .      S
N15   H41   1.029 .      S
N15   H42   1.028 .      S
C50   H43   1.081 .      S
C51   H44   1.081 .      S
H37   C42   1.080 1_655  S
N17   C53   1.408 .      S
N17   H45   1.029 .      S
N17   H46   1.027 .      S
C54   H47   1.079 .      S
C55   H48   1.075 .      S
C56   C59   1.452 .      S
C57   H49   1.081 .      S
C58   H50   1.080 .      S
C61   H51   1.078 .      S
C62   N19   1.408 .      S
N19   H52   1.029 1_455  S
N19   H53   1.029 1_455  S
C63   H54   1.081 .      S
C64   H55   1.075 .      S
H52   N19   1.029 1_655  S
H53   N19   1.029 1_655  S
N21   C66   1.379 .      S
N21   H56   1.016 .      S
N21   H57   1.012 .      S
C67   H58   1.073 .      S
C68   H59   1.057 .      S
C69   C72   1.428 .      S
C70   H60   1.060 .      S
C71   H61   1.079 .      S
C74   H62   1.056 .      S
C75   N23   1.388 .      S
N23   H63   1.009 .      S
N23   H64   1.019 .      S
C76   H65   1.077 .      S
C77   H66   1.078 .      S
N25   C79   1.407 1_655  S
N25   H67   1.029 .      S
N25   H68   1.028 1_655  S
C79   N25   1.407 1_455  S
C80   H69   1.081 .      S
C81   H70   1.079 .      S
C82   C85   1.453 .      S
C83   H71   1.075 .      S
C84   H72   1.077 .      S
N26   Zn8   2.217 1_455  S
C87   H73   1.077 .      S
C88   N27   1.407 1_545  S
N27   C88   1.407 1_565  S
N27   H74   1.029 .      S
N27   H75   1.029 .      S
C89   H76   1.081 1_545  S
C90   H77   1.081 .      S
H68   N25   1.028 1_455  S
H76   C89   1.081 1_565  S
N29   C92   1.397 .      S
N29   H78   1.029 .      S
N29   H79   1.030 .      S
C93   H80   1.078 .      S
C94   H81   1.077 .      S
C95   C98   1.452 .      S
C96   H82   1.076 .      S
C97   H83   1.082 .      S
C100  H84   1.049 .      S
C101  N31   1.401 1_655  S
N31   C101  1.401 1_455  S
N31   H85   1.020 .      S
N31   H86   1.026 .      S
C102  H87   1.068 .      S
C103  H88   1.069 .      S
N33   C105  1.401 .      S
N33   H89   1.018 .      S
N33   H90   1.029 1_655  S
C106  H91   1.076 .      S
C107  H92   1.081 .      S
C108  C111  1.437 .      S
C109  H93   1.079 .      S
C110  H94   1.077 .      S
C113  H95   1.078 .      S
C114  N35   1.408 1_545  S
N35   C114  1.408 1_565  S
N35   H96   1.029 .      S
N35   H97   1.029 1_565  S
C115  H98   1.079 1_545  S
C116  H99   1.047 .      S
H90   N33   1.029 1_455  S
H97   N35   1.029 1_545  S
H98   C115  1.079 1_565  S
N37   C118  1.405 1_455  S
N37   H100  1.021 .      S
N37   H101  1.028 .      S
C118  N37   1.405 1_655  S
C119  H102  1.078 .      S
C120  H103  1.075 .      S
C121  C124  1.436 .      S
C122  H104  1.081 .      S
C123  H105  1.081 .      S
C126  H106  1.071 .      S
C127  N39   1.405 .      S
N39   H107  1.029 .      S
N39   H108  1.029 .      S
C128  H109  1.073 .      S
C129  H110  1.069 .      S
N41   C131  1.393 .      S
N41   H111  1.022 1_455  S
N41   H112  1.023 .      S
C132  H113  1.058 .      S
C133  H114  1.065 1_455  S
C134  C137  1.447 .      S
C135  H115  1.047 .      S
C136  H116  1.073 .      S
N42   Zn11  2.199 1_455  S
C139  H117  1.081 .      S
C140  N43   1.408 .      S
N43   H118  1.029 .      S
N43   H119  1.029 .      S
C141  H120  1.081 .      S
C142  H121  1.082 .      S
H111  N41   1.022 1_655  S
H114  C133  1.065 1_655  S
N45   C144  1.408 .      S
N45   H122  1.025 .      S
N45   H123  1.029 .      S
C145  H124  1.073 .      S
C146  H125  1.073 .      S
C147  C150  1.447 .      S
C148  H126  1.073 .      S
C149  H127  1.074 .      S
C152  H128  1.022 1_655  S
C153  N47   1.401 1_655  S
N47   C153  1.401 1_455  S
N47   H129  1.026 .      S
N47   H130  1.020 .      S
C154  H131  1.064 .      S
C155  H132  1.081 .      S
H128  C152  1.022 1_455  S
N49   C157  1.405 .      S
N49   H133  1.029 .      S
N49   H134  1.029 .      S
C158  H135  1.072 .      S
C159  H136  1.063 .      S
C160  C163  1.458 .      S
C161  H137  1.052 .      S
C162  H138  1.081 .      S
C165  H139  1.081 .      S
C166  N51   1.408 .      S
N51   H140  1.029 .      S
N51   H141  1.029 .      S
C167  H142  1.081 .      S
C168  H143  1.080 .      S
N53   C170  1.386 .      S
N53   H144  1.018 .      S
N53   H145  1.008 .      S
C171  H146  1.075 .      S
C172  H147  1.078 .      S
C173  C176  1.429 1_455  S
C174  H148  1.073 1_455  S
C175  H149  1.079 .      S
C176  C173  1.429 1_655  S
C178  H150  1.081 .      S
C179  N55   1.407 .      S
N55   H151  1.024 .      S
N55   H152  1.029 .      S
C180  H153  1.078 .      S
C181  H154  1.080 .      S
H148  C174  1.073 1_655  S
N57   C183  1.408 .      S
N57   H155  1.029 .      S
N57   H156  1.029 .      S
C184  H157  1.078 .      S
C185  H158  1.077 .      S
C186  C189  1.465 .      S
C187  H159  1.075 .      S
C188  H160  1.081 .      S
N58   Zn9   2.186 1_565  S
C191  H161  1.077 .      S
C192  N59   1.396 .      S
N59   H162  1.021 .      S
N59   H163  1.016 .      S
C193  H164  1.080 .      S
C194  H165  1.071 .      S
N61   C196  1.393 .      S
N61   H166  1.030 .      S
N61   H167  1.025 .      S
C197  H168  1.080 .      S
C198  H169  1.077 .      S
C199  C202  1.446 1_565  S
C200  H170  1.080 .      S
C201  H171  1.074 .      S
C202  C199  1.446 1_545  S
C204  H172  1.072 .      S
C205  N63   1.405 .      S
N63   H173  1.028 .      S
N63   H174  1.025 .      S
C206  H175  1.081 .      S
C207  H176  1.073 .      S
N65   C209  1.399 .      S
N65   H177  1.024 .      S
N65   H178  1.029 .      S
C210  H179  1.052 .      S
C211  H180  1.063 1_655  S
C212  C215  1.426 1_655  S
C213  H181  1.057 .      S
C214  H182  1.064 .      S
C215  C212  1.426 1_455  S
C217  H183  1.067 .      S
C218  N67   1.408 .      S
N67   H184  1.028 .      S
N67   H185  1.029 1_565  S
C219  H186  1.078 .      S
C220  H187  1.081 .      S
H180  C211  1.063 1_455  S
H185  N67   1.029 1_545  S
N69   C222  1.408 .      S
N69   H188  1.029 .      S
N69   H189  1.028 .      S
C223  H190  1.081 .      S
C224  H191  1.078 .      S
C225  C228  1.472 1_556  S
C226  H192  1.081 1_556  S
C227  H193  1.081 .      S
C228  C225  1.472 1_554  S
C230  H194  1.067 .      S
C231  N71   1.376 .      S
N71   H195  1.027 .      S
N71   H196  1.011 .      S
C232  H197  1.039 .      S
C233  H198  1.045 .      S
H192  C226  1.081 1_554  S
N73   C235  1.411 .      S
N73   H199  1.029 .      S
N73   H200  1.027 1_655  S
C236  H201  1.058 1_554  S
C237  H202  1.050 1_554  S
C238  C241  1.473 .      S
C239  H203  1.037 .      S
C240  H204  1.072 1_655  S
C243  H205  1.081 .      S
C244  N75   1.408 .      S
N75   H206  1.029 .      S
N75   H207  1.029 .      S
C245  H208  1.081 .      S
C246  H209  1.081 1_656  S
N76   Zn13  2.244 1_655  S
H200  N73   1.027 1_455  S
H201  C236  1.058 1_556  S
H202  C237  1.050 1_556  S
H204  C240  1.072 1_455  S
H209  C246  1.081 1_454  S
N77   C248  1.412 .      S
N77   H210  1.021 1_455  S
N77   H211  1.029 .      S
C249  H212  1.078 .      S
C250  H213  1.077 .      S
C251  C254  1.481 .      S
C252  H214  1.059 .      S
C253  H215  1.077 .      S
C256  H216  1.075 .      S
C257  N79   1.385 1_655  S
N79   C257  1.385 1_455  S
N79   H217  1.018 .      S
N79   H218  1.023 1_455  S
C258  H219  1.074 1_655  S
C259  H220  1.082 .      S
H210  N77   1.021 1_655  S
H218  N79   1.023 1_655  S
H219  C258  1.074 1_455  S
N81   C261  1.394 .      S
N81   H221  1.019 .      S
N81   H222  1.023 .      S
C262  H223  1.075 .      S
C263  H224  1.069 1_455  S
C264  C267  1.435 1_455  S
C265  H225  1.081 .      S
C266  H226  1.076 .      S
C267  C264  1.435 1_655  S
C269  H227  1.080 .      S
C270  N83   1.410 .      S
N83   H228  1.029 .      S
N83   H229  1.028 .      S
C271  H230  1.081 .      S
C272  H231  1.081 .      S
H224  C263  1.069 1_655  S
N85   C274  1.408 .      S
N85   H232  1.029 .      S
N85   H233  1.028 .      S
C275  H234  1.081 .      S
C276  H235  1.080 .      S
C277  C280  1.456 .      S
C278  H236  1.079 .      S
C279  H237  1.077 .      S
C282  H238  1.067 .      S
C283  N87   1.408 .      S
N87   H239  1.026 .      S
N87   H240  1.028 .      S
C284  H241  1.075 .      S
C285  H242  1.086 .      S
N89   C287  1.392 .      S
N89   H243  1.027 .      S
N89   H244  1.019 .      S
C288  H245  1.084 .      S
C289  H246  1.081 .      S
C290  C293  1.421 .      S
C291  H247  1.079 1_455  S
C292  H248  1.077 .      S
C295  H249  1.066 1_655  S
C296  N91   1.404 .      S
N91   H250  1.020 .      S
N91   H251  1.029 .      S
C297  H252  1.067 .      S
C298  H253  1.079 .      S
H247  C291  1.079 1_655  S
H249  C295  1.066 1_455  S
N93   C300  1.392 .      S
N93   H254  1.027 .      S
N93   H255  1.022 .      S
C301  H256  1.073 .      S
C302  H257  1.068 .      S
C303  C306  1.435 .      S
C304  H258  1.073 .      S
C305  H259  1.081 .      S
C308  H260  1.044 .      S
C309  N95   1.392 .      S
N95   H261  1.024 .      S
N95   H262  1.027 .      S
C310  H263  1.079 .      S
C311  H264  1.076 .      S
N97   C313  1.391 .      S
N97   H265  1.027 .      S
N97   H266  1.029 .      S
C314  H267  1.063 .      S
C315  H268  1.083 .      S
C316  C319  1.455 .      S
C317  H269  1.060 1_545  S
C318  H270  1.081 .      S
C321  H271  1.037 .      S
C322  N99   1.403 .      S
N99   H272  1.029 1_565  S
N99   H273  1.020 .      S
C323  H274  1.074 .      S
C324  H275  1.081 1_455  S
H269  C317  1.060 1_565  S
H272  N99   1.029 1_545  S
H275  C324  1.081 1_655  S
N101  C326  1.407 .      S
N101  H276  1.026 .      S
N101  H277  1.029 .      S
C327  H278  1.053 .      S
C328  H279  1.081 .      S
C329  C332  1.447 .      S
C330  H280  1.063 .      S
C331  H281  1.073 .      S
C334  H282  1.070 .      S
C335  N103  1.407 .      S
N103  H283  1.029 .      S
N103  H284  1.029 .      S
C336  H285  1.069 .      S
C337  H286  1.067 .      S
N105  C339  1.408 .      S
N105  H287  1.029 .      S
N105  H288  1.029 .      S
C340  H289  1.081 .      S
C341  H290  1.080 1_556  S
C342  C345  1.506 1_556  S
C343  H291  1.075 .      S
C344  H292  1.081 .      S
C345  C342  1.506 1_554  S
C347  H293  1.072 .      S
C348  N107  1.399 .      S
N107  H294  1.027 .      S
N107  H295  1.026 .      S
C349  H296  1.066 .      S
C350  H297  1.072 .      S
N108  Zn14  2.078 1_554  S
H290  C341  1.080 1_554  S
N109  C352  1.411 .      S
N109  H298  1.029 .      S
N109  H299  1.030 .      S
C353  H300  1.081 .      S
C354  H301  1.070 .      S
C355  C358  1.452 .      S
C356  H302  1.081 .      S
C357  H303  1.066 .      S
C360  H304  1.072 .      S
C361  N111  1.410 .      S
N111  H305  1.029 .      S
N111  H306  1.025 .      S
C362  H307  1.080 .      S
C363  H308  1.078 .      S
C1    C2    1.364 .      A
C1    C6    1.362 .      A
C2    C3    1.349 .      A
C3    C4    1.358 .      A
C4    C5    1.371 .      A
C5    C6    1.364 .      A
C7    N2    1.384 .      A
C7    N4    1.369 .      A
N2    C8    1.349 .      A
C8    C9    1.366 .      A
C8    C13   1.365 .      A
C9    C10   1.385 .      A
C10   C11   1.390 .      A
C11   C12   1.384 .      A
C12   C13   1.377 .      A
C13   N4    1.347 .      A
C14   C15   1.372 .      A
C14   C19   1.377 .      A
C15   C16   1.379 .      A
C16   C17   1.368 .      A
C17   C18   1.375 .      A
C18   C19   1.379 .      A
C20   N6    1.396 .      A
C20   N8    1.399 1_455  A
N6    C21   1.353 .      A
C21   C22   1.370 .      A
C21   C26   1.365 .      A
C22   C23   1.386 .      A
C23   C24   1.393 .      A
C24   C25   1.380 .      A
C25   C26   1.369 .      A
C26   N8    1.338 1_455  A
N8    C20   1.399 1_655  A
N8    C26   1.338 1_655  A
C27   C28   1.367 .      A
C27   C32   1.366 .      A
C28   C29   1.381 .      A
C29   C30   1.359 .      A
C30   C31   1.383 .      A
C31   C32   1.391 .      A
C33   N10   1.414 .      A
C33   N12   1.396 .      A
N10   C34   1.340 .      A
C34   C35   1.361 .      A
C34   C39   1.354 .      A
C35   C36   1.362 .      A
C36   C37   1.367 .      A
C37   C38   1.367 .      A
C38   C39   1.333 .      A
C39   N12   1.323 .      A
C40   C41   1.378 1_455  A
C40   C45   1.374 .      A
C41   C40   1.378 1_655  A
C41   C42   1.379 1_655  A
C42   C41   1.379 1_455  A
C42   C43   1.370 .      A
C43   C44   1.383 .      A
C44   C45   1.376 .      A
C46   N14   1.408 .      A
C46   N16   1.364 .      A
N14   C47   1.377 .      A
C47   C48   1.372 .      A
C47   C52   1.363 .      A
C48   C49   1.390 .      A
C49   C50   1.383 .      A
C50   C51   1.375 .      A
C51   C52   1.371 .      A
C52   N16   1.320 .      A
C53   C54   1.377 .      A
C53   C58   1.377 .      A
C54   C55   1.382 .      A
C55   C56   1.369 .      A
C56   C57   1.379 .      A
C57   C58   1.378 .      A
C59   N18   1.374 .      A
C59   N20   1.375 .      A
N18   C60   1.345 .      A
C60   C61   1.373 .      A
C60   C65   1.362 .      A
C61   C62   1.385 .      A
C62   C63   1.391 .      A
C63   C64   1.385 .      A
C64   C65   1.371 .      A
C65   N20   1.347 .      A
C66   C67   1.368 .      A
C66   C71   1.365 .      A
C67   C68   1.355 .      A
C68   C69   1.350 .      A
C69   C70   1.368 .      A
C70   C71   1.362 .      A
C72   N22   1.397 .      A
C72   N24   1.391 .      A
N22   C73   1.323 .      A
C73   C74   1.327 .      A
C73   C78   1.361 .      A
C74   C75   1.343 .      A
C75   C76   1.391 .      A
C76   C77   1.393 .      A
C77   C78   1.380 .      A
C78   N24   1.348 .      A
C79   C80   1.378 1_455  A
C79   C84   1.378 .      A
C80   C79   1.378 1_655  A
C80   C81   1.379 .      A
C81   C82   1.380 1_655  A
C82   C81   1.380 1_455  A
C82   C83   1.369 .      A
C83   C84   1.377 .      A
C85   N26   1.398 .      A
C85   N28   1.383 .      A
N26   C86   1.351 .      A
C86   C87   1.374 .      A
C86   C91   1.381 .      A
C87   C88   1.386 .      A
C88   C89   1.389 .      A
C89   C90   1.381 .      A
C90   C91   1.371 .      A
C91   N28   1.341 .      A
C92   C93   1.374 .      A
C92   C97   1.370 .      A
C93   C94   1.375 .      A
C94   C95   1.377 .      A
C95   C96   1.378 .      A
C96   C97   1.370 .      A
C98   N30   1.387 .      A
C98   N32   1.386 .      A
N30   C99   1.339 .      A
C99   C100  1.335 .      A
C99   C104  1.346 .      A
C100  C101  1.383 .      A
C101  C102  1.378 .      A
C102  C103  1.370 .      A
C103  C104  1.363 .      A
C104  N32   1.326 .      A
C105  C106  1.383 .      A
C105  C110  1.370 .      A
C106  C107  1.371 .      A
C107  C108  1.371 .      A
C108  C109  1.374 .      A
C109  C110  1.370 .      A
C111  N34   1.379 .      A
C111  N36   1.379 .      A
N34   C112  1.330 .      A
C112  C113  1.371 .      A
C112  C117  1.364 .      A
C113  C114  1.376 .      A
C114  C115  1.384 .      A
C115  C116  1.390 .      A
C116  C117  1.365 .      A
C117  N36   1.364 .      A
C118  C119  1.390 .      A
C118  C123  1.372 .      A
C119  C120  1.379 .      A
C120  C121  1.361 .      A
C121  C122  1.375 .      A
C122  C123  1.367 .      A
C124  N38   1.391 .      A
C124  N40   1.373 .      A
N38   C125  1.343 .      A
C125  C126  1.368 .      A
C125  C130  1.353 .      A
C126  C127  1.377 .      A
C127  C128  1.384 .      A
C128  C129  1.377 .      A
C129  C130  1.360 .      A
C130  N40   1.339 .      A
C131  C132  1.354 1_455  A
C131  C136  1.359 .      A
C132  C131  1.354 1_655  A
C132  C133  1.370 1_655  A
C133  C132  1.370 1_455  A
C133  C134  1.373 .      A
C134  C135  1.351 .      A
C135  C136  1.361 .      A
C137  N42   1.400 .      A
C137  N44   1.395 .      A
N42   C138  1.345 .      A
C138  C139  1.372 .      A
C138  C143  1.384 .      A
C139  C140  1.385 .      A
C140  C141  1.392 .      A
C141  C142  1.387 .      A
C142  C143  1.380 .      A
C143  N44   1.360 .      A
C144  C145  1.380 .      A
C144  C149  1.369 .      A
C145  C146  1.378 .      A
C146  C147  1.369 .      A
C147  C148  1.367 .      A
C148  C149  1.374 .      A
C150  N46   1.388 .      A
C150  N48   1.386 .      A
N46   C151  1.347 .      A
C151  C152  1.341 .      A
C151  C156  1.347 .      A
C152  C153  1.355 .      A
C153  C154  1.377 .      A
C154  C155  1.383 .      A
C155  C156  1.373 .      A
C156  N48   1.331 .      A
C157  C158  1.372 .      A
C157  C162  1.377 .      A
C158  C159  1.374 1_455  A
C159  C158  1.374 1_655  A
C159  C160  1.356 .      A
C160  C161  1.367 1_655  A
C161  C160  1.367 1_455  A
C161  C162  1.380 .      A
C163  N50   1.388 .      A
C163  N52   1.392 .      A
N50   C164  1.347 .      A
C164  C165  1.369 .      A
C164  C169  1.372 .      A
C165  C166  1.386 1_545  A
C166  C165  1.386 1_565  A
C166  C167  1.393 .      A
C167  C168  1.386 .      A
C168  C169  1.372 1_565  A
C169  C168  1.372 1_545  A
C169  N52   1.346 .      A
C170  C171  1.359 .      A
C170  C175  1.371 .      A
C171  C172  1.359 .      A
C172  C173  1.377 .      A
C173  C174  1.366 .      A
C174  C175  1.369 .      A
C176  N54   1.382 .      A
C176  N56   1.410 .      A
N54   C177  1.339 .      A
C177  C178  1.364 .      A
C177  C182  1.374 .      A
C178  C179  1.378 .      A
C179  C180  1.397 .      A
C180  C181  1.389 .      A
C181  C182  1.371 .      A
C182  N56   1.350 .      A
C183  C184  1.376 .      A
C183  C188  1.374 .      A
C184  C185  1.384 .      A
C185  C186  1.377 1_455  A
C186  C185  1.377 1_655  A
C186  C187  1.381 .      A
C187  C188  1.377 1_655  A
C188  C187  1.377 1_455  A
C189  N58   1.409 .      A
C189  N60   1.403 .      A
N58   C190  1.333 .      A
C190  C191  1.349 .      A
C190  C195  1.347 .      A
C191  C192  1.379 .      A
C192  C193  1.387 .      A
C193  C194  1.382 .      A
C194  C195  1.361 .      A
C195  N60   1.337 .      A
C196  C197  1.368 .      A
C196  C201  1.372 .      A
C197  C198  1.367 .      A
C198  C199  1.378 .      A
C199  C200  1.372 .      A
C200  C201  1.375 .      A
C202  N62   1.384 .      A
C202  N64   1.390 .      A
N62   C203  1.356 .      A
C203  C204  1.375 .      A
C203  C208  1.369 .      A
C204  C205  1.388 .      A
C205  C206  1.385 .      A
C206  C207  1.379 .      A
C207  C208  1.363 .      A
C208  N64   1.339 .      A
C209  C210  1.363 .      A
C209  C214  1.357 .      A
C210  C211  1.364 .      A
C211  C212  1.355 .      A
C212  C213  1.343 .      A
C213  C214  1.366 .      A
C215  N66   1.379 .      A
C215  N68   1.369 1_455  A
N66   C216  1.351 .      A
C216  C217  1.372 .      A
C216  C221  1.369 .      A
C217  C218  1.381 1_545  A
C218  C217  1.381 1_565  A
C218  C219  1.385 .      A
C219  C220  1.379 .      A
C220  C221  1.373 1_565  A
C221  C220  1.373 1_545  A
C221  N68   1.340 1_455  A
N68   C215  1.369 1_655  A
N68   C221  1.340 1_655  A
C222  C223  1.378 .      A
C222  C227  1.379 .      A
C223  C224  1.380 .      A
C224  C225  1.387 .      A
C225  C226  1.381 .      A
C226  C227  1.381 .      A
C228  N70   1.400 .      A
C228  N72   1.390 1_564  A
N70   C229  1.318 1_565  A
C229  N70   1.318 1_545  A
C229  C230  1.352 .      A
C229  C234  1.339 .      A
C230  C231  1.349 .      A
C231  C232  1.341 .      A
C232  C233  1.375 .      A
C233  C234  1.334 .      A
C234  N72   1.329 1_554  A
N72   C228  1.390 1_546  A
N72   C234  1.329 1_556  A
C235  C236  1.362 .      A
C235  C240  1.379 .      A
C236  C237  1.380 .      A
C237  C238  1.345 .      A
C238  C239  1.366 .      A
C239  C240  1.383 .      A
C241  N74   1.413 1_554  A
C241  N76   1.417 1_545  A
N74   C241  1.413 1_556  A
N74   C242  1.348 1_545  A
C242  N74   1.348 1_565  A
C242  C243  1.373 .      A
C242  C247  1.381 .      A
C243  C244  1.386 .      A
C244  C245  1.392 .      A
C245  C246  1.386 .      A
C246  C247  1.372 .      A
C247  N76   1.351 1_556  A
N76   C241  1.417 1_565  A
N76   C247  1.351 1_554  A
C248  C249  1.388 .      A
C248  C253  1.355 .      A
C249  C250  1.397 .      A
C250  C251  1.380 .      A
C251  C252  1.381 .      A
C252  C253  1.361 .      A
C254  N78   1.420 .      A
C254  N80   1.390 .      A
N78   C255  1.340 .      A
C255  C256  1.357 .      A
C255  C260  1.362 .      A
C256  C257  1.375 .      A
C257  C258  1.385 .      A
C258  C259  1.369 .      A
C259  C260  1.362 .      A
C260  N80   1.329 .      A
C261  C262  1.376 .      A
C261  C266  1.374 .      A
C262  C263  1.367 .      A
C263  C264  1.368 .      A
C264  C265  1.378 .      A
C265  C266  1.369 .      A
C267  N82   1.386 .      A
C267  N84   1.386 .      A
N82   C268  1.344 .      A
C268  C269  1.372 .      A
C268  C273  1.370 .      A
C269  C270  1.387 .      A
C270  C271  1.395 .      A
C271  C272  1.389 .      A
C272  C273  1.372 .      A
C273  N84   1.351 .      A
C274  C275  1.377 .      A
C274  C279  1.384 .      A
C275  C276  1.378 .      A
C276  C277  1.380 .      A
C277  C278  1.377 .      A
C278  C279  1.378 .      A
C280  N86   1.399 .      A
C280  N88   1.388 .      A
N86   C281  1.346 .      A
C281  C282  1.354 .      A
C281  C286  1.356 .      A
C282  C283  1.377 .      A
C283  C284  1.385 .      A
C284  C285  1.384 .      A
C285  C286  1.367 .      A
C286  N88   1.331 .      A
C287  C288  1.373 .      A
C287  C292  1.375 .      A
C288  C289  1.374 .      A
C289  C290  1.374 .      A
C290  C291  1.363 .      A
C291  C292  1.362 .      A
C293  N90   1.367 .      A
C293  N92   1.381 1_455  A
N90   C294  1.343 .      A
C294  C295  1.363 1_455  A
C294  C299  1.360 1_455  A
C295  C294  1.363 1_655  A
C295  C296  1.372 .      A
C296  C297  1.391 .      A
C297  C298  1.379 .      A
C298  C299  1.361 .      A
C299  C294  1.360 1_655  A
C299  N92   1.336 .      A
N92   C293  1.381 1_655  A
C300  C301  1.378 .      A
C300  C305  1.365 .      A
C301  C302  1.367 .      A
C302  C303  1.362 .      A
C303  C304  1.376 .      A
C304  C305  1.357 .      A
C306  N94   1.381 .      A
C306  N96   1.382 .      A
N94   C307  1.338 1_655  A
C307  N94   1.338 1_455  A
C307  C308  1.334 .      A
C307  C312  1.353 1_455  A
C308  C309  1.358 .      A
C309  C310  1.394 .      A
C310  C311  1.374 .      A
C311  C312  1.370 1_455  A
C312  C307  1.353 1_655  A
C312  C311  1.370 1_655  A
C312  N96   1.331 .      A
C313  C314  1.377 .      A
C313  C318  1.374 .      A
C314  C315  1.373 .      A
C315  C316  1.382 .      A
C316  C317  1.368 .      A
C317  C318  1.375 .      A
C319  N98   1.381 .      A
C319  N100  1.390 1_545  A
N98   C320  1.346 .      A
C320  C321  1.345 .      A
C320  C325  1.351 1_545  A
C321  C322  1.369 1_445  A
C322  C321  1.369 1_665  A
C322  C323  1.389 .      A
C323  C324  1.376 1_655  A
C324  C323  1.376 1_455  A
C324  C325  1.369 .      A
C325  C320  1.351 1_565  A
C325  N100  1.326 .      A
N100  C319  1.390 1_565  A
C326  C327  1.375 .      A
C326  C331  1.366 1_655  A
C327  C328  1.370 .      A
C328  C329  1.366 1_655  A
C329  C328  1.366 1_455  A
C329  C330  1.372 .      A
C330  C331  1.372 .      A
C331  C326  1.366 1_455  A
C332  N102  1.384 .      A
C332  N104  1.386 .      A
N102  C333  1.345 .      A
C333  C334  1.371 .      A
C333  C338  1.362 .      A
C334  C335  1.387 .      A
C335  C336  1.383 .      A
C336  C337  1.379 .      A
C337  C338  1.351 .      A
C338  N104  1.337 .      A
C339  C340  1.373 .      A
C339  C344  1.371 .      A
C340  C341  1.382 .      A
C341  C342  1.414 .      A
C342  C343  1.384 .      A
C343  C344  1.377 .      A
C345  N106  1.395 .      A
C345  N108  1.389 .      A
N106  C346  1.338 .      A
C346  C347  1.359 .      A
C346  C351  1.340 .      A
C347  C348  1.372 .      A
C348  C349  1.386 .      A
C349  C350  1.376 .      A
C350  C351  1.357 .      A
C351  N108  1.330 .      A
C352  C353  1.383 .      A
C352  C357  1.375 .      A
C353  C354  1.385 .      A
C354  C355  1.376 .      A
C355  C356  1.368 .      A
C356  C357  1.371 .      A
C358  N110  1.397 1_655  A
C358  N112  1.416 1_554  A
N110  C358  1.397 1_455  A
N110  C359  1.345 1_554  A
C359  N110  1.345 1_556  A
C359  C360  1.359 .      A
C359  C364  1.373 1_455  A
C360  C361  1.397 .      A
C361  C362  1.393 1_455  A
C362  C361  1.393 1_655  A
C362  C363  1.384 .      A
C363  C364  1.366 .      A
C364  C359  1.373 1_655  A
C364  N112  1.343 .      A
N112  C358  1.416 1_556  A
