data_str_m1_o12216_ATS
_audit_creation_date              2015-10-01T06:47:59-0700
_symmetry_space_group_name_H-M    P1
_symmetry_Int_Tables_number       1
_space_group_crystal_system       triclinic
loop_
_symmetry_equiv_pos_as_xyz
  x,y,z
_cell_length_a                    10.4765045
_cell_length_b                    24.8087349
_cell_length_c                    25.4390591
_cell_angle_alpha                 116.559188
_cell_angle_beta                  95.6457353
_cell_angle_gamma                 79.1561829
_cell_volume                      5807.73889533

loop_
_atom_site_label
_atom_site_type_symbol
_atom_site_description
_atom_site_fract_x
_atom_site_fract_y
_atom_site_fract_z
_atom_type_partial_charge
Zn1   Zn    Zn3+2 0.898960 0.155028 0.068974 0.000000
Zn2   Zn    Zn3+2 0.342526 0.975332 0.742387 0.000000
Zn3   Zn    Zn3+2 0.993269 0.572553 0.540497 0.000000
Zn4   Zn    Zn3+2 0.036079 0.528052 0.021281 0.000000
Zn5   Zn    Zn3+2 0.755358 0.716954 0.919601 0.000000
Zn6   Zn    Zn3+2 0.547355 0.422865 0.893888 0.000000
Zn7   Zn    Zn3+2 0.768452 0.146861 0.824832 0.000000
Zn8   Zn    Zn3+2 0.322343 0.549940 0.256497 0.000000
Zn9   Zn    Zn3+2 0.475886 0.989996 0.990699 0.000000
Zn10  Zn    Zn3+2 0.273166 0.609777 0.788045 0.000000
Zn11  Zn    Zn3+2 0.428199 0.699427 0.529850 0.000000
Zn12  Zn    Zn3+2 0.883001 0.424762 0.270274 0.000000
C1    C     C_3   0.150563 0.469809 0.790916 0.000000
C2    C     C_R   0.064855 0.517348 0.837096 0.000000
C3    C     C_R   0.954675 0.543953 0.818978 0.000000
C4    C     C_R   0.889197 0.598189 0.858274 0.000000
C5    C     C_R   0.916628 0.616154 0.916145 0.000000
N1    N     N_R   0.844280 0.661622 0.959468 0.000000
C6    C     C_R   0.878512 0.644755 0.004904 0.000000
N2    N     N_R   0.974098 0.593325 0.990517 0.000000
C7    C     C_R   0.995606 0.577870 0.934221 0.000000
C8    C     C_R   0.078321 0.529385 0.895734 0.000000
S1    S     S_3+2 0.791980 0.678170 0.072075 0.000000
O1    O     O_2   0.832216 0.739048 0.116331 0.000000
O2    O     O_2   0.831191 0.639304 0.105831 0.000000
O3    O     O_3   0.625355 0.690529 0.070182 0.000000
H1    H     H_    0.168812 0.490008 0.762430 0.000000
H2    H     H_    0.095186 0.432696 0.763557 0.000000
H3    H     H_    0.243708 0.456404 0.809707 0.000000
H4    H     H_    0.917542 0.519367 0.775319 0.000000
H5    H     H_    0.806470 0.620737 0.845815 0.000000
H6    H     H_    0.161510 0.509421 0.911473 0.000000
H7    H     H_    0.602661 0.651552 0.039309 0.000000
C9    C     C_3   0.873024 0.370361 0.111667 0.000000
C10   C     C_R   0.808915 0.410728 0.084193 0.000000
C11   C     C_R   0.678065 0.410366 0.068898 0.000000
C12   C     C_R   0.628525 0.422597 0.023008 0.000000
C13   C     C_R   0.706240 0.445710 0.001641 0.000000
N3    N     N_R   0.681181 0.456612 0.954896 0.000000
C14   C     C_R   0.782752 0.482519 0.954000 0.000000
N4    N     N_R   0.873419 0.487719 0.998930 0.000000
C15   C     C_R   0.822099 0.462017 0.027028 0.000000
C16   C     C_R   0.880518 0.441832 0.066868 0.000000
S2    S     S_3+2 0.786143 0.499311 0.893954 0.000000
O4    O     O_2   0.688076 0.461192 0.852038 0.000000
O5    O     O_2   0.900403 0.471702 0.852577 0.000000
O6    O     O_3   0.720638 0.569681 0.899596 0.000000
H8    H     H_    0.977924 0.371626 0.117987 0.000000
H9    H     H_    0.862394 0.322568 0.081332 0.000000
H10   H     H_    0.827840 0.383209 0.153949 0.000000
H11   H     H_    0.617141 0.393286 0.086522 0.000000
H12   H     H_    0.535146 0.411760 0.003656 0.000000
H13   H     H_    0.981273 0.444411 0.078155 0.000000
H14   H     H_    0.708460 0.591936 0.942456 0.000000
C17   C     C_3   0.218633 0.332256 0.736056 0.000000
C18   C     C_R   0.202265 0.363312 0.801142 0.000000
C19   C     C_R   0.080207 0.383503 0.826586 0.000000
C20   C     C_R   0.068850 0.410173 0.887411 0.000000
C21   C     C_R   0.179420 0.421482 0.921293 0.000000
N5    N     N_R   0.189396 0.466177 0.976263 0.000000
C22   C     C_R   0.321408 0.466907 0.983456 0.000000
N6    N     N_R   0.389208 0.427452 0.933491 0.000000
C23   C     C_R   0.297145 0.400908 0.895849 0.000000
C24   C     C_R   0.311035 0.371756 0.836654 0.000000
S3    S     S_3+2 0.398849 0.513330 0.051142 0.000000
O7    O     O_2   0.418854 0.480513 0.090324 0.000000
O8    O     O_2   0.312198 0.571503 0.091083 0.000000
O9    O     O_3   0.547893 0.533761 0.055201 0.000000
H15   H     H_    0.274650 0.285667 0.723006 0.000000
H16   H     H_    0.273658 0.358331 0.723064 0.000000
H17   H     H_    0.122691 0.329082 0.713085 0.000000
H18   H     H_    0.995093 0.373642 0.798316 0.000000
H19   H     H_    0.976908 0.421581 0.907790 0.000000
H20   H     H_    0.404405 0.361386 0.818843 0.000000
H21   H     H_    0.593191 0.525095 0.086695 0.000000
C25   C     C_3   0.135512 0.802169 0.268544 0.000000
C26   C     C_R   0.128661 0.738238 0.224482 0.000000
C27   C     C_R   0.076824 0.727196 0.169182 0.000000
C28   C     C_R   0.063015 0.668896 0.128256 0.000000
C29   C     C_R   0.105716 0.621842 0.143063 0.000000
N7    N     N_R   0.104023 0.561693 0.108970 0.000000
C30   C     C_R   0.181409 0.536058 0.142348 0.000000
N8    N     N_R   0.227219 0.577573 0.194618 0.000000
C31   C     C_R   0.173650 0.631541 0.194612 0.000000
C32   C     C_R   0.177978 0.690144 0.237930 0.000000
S4    S     S_3+2 0.228272 0.456892 0.123228 0.000000
O10   O     O_2   0.235528 0.413686 0.057220 0.000000
O11   O     O_2   0.129718 0.433556 0.145127 0.000000
O12   O     O_3   0.370412 0.438368 0.155364 0.000000
H22   H     H_    0.193920 0.823088 0.250826 0.000000
H23   H     H_    0.181424 0.802907 0.309979 0.000000
H24   H     H_    0.035914 0.828776 0.277618 0.000000
H25   H     H_    0.047372 0.764483 0.157898 0.000000
H26   H     H_    0.028577 0.660939 0.085004 0.000000
H27   H     H_    0.214962 0.700577 0.281584 0.000000
H28   H     H_    0.430682 0.410956 0.123413 0.000000
C33   C     C_3   0.920481 0.861716 0.152727 0.000000
C34   C     C_R   0.818507 0.874838 0.113479 0.000000
C35   C     C_R   0.774390 0.934856 0.124316 0.000000
C36   C     C_R   0.687352 0.948509 0.086183 0.000000
C37   C     C_R   0.637501 0.902729 0.039753 0.000000
N9    N     N_R   0.562623 0.907443 0.994971 0.000000
C38   C     C_R   0.581853 0.847352 0.952261 0.000000
N10   N     N_R   0.665445 0.807267 0.969386 0.000000
C39   C     C_R   0.691256 0.843414 0.025900 0.000000
C40   C     C_R   0.779611 0.827937 0.062641 0.000000
S5    S     S_3+2 0.518407 0.823243 0.878651 0.000000
O13   O     O_2   0.405656 0.866562 0.868066 0.000000
O14   O     O_2   0.455687 0.766227 0.857824 0.000000
O15   O     O_3   0.623711 0.805782 0.824992 0.000000
H29   H     H_    0.948242 0.904941 0.187148 0.000000
H30   H     H_    0.007040 0.833669 0.126093 0.000000
H31   H     H_    0.881645 0.838514 0.174578 0.000000
H32   H     H_    0.814929 0.971326 0.160464 0.000000
H33   H     H_    0.677690 0.991941 0.087663 0.000000
H34   H     H_    0.825323 0.781135 0.049477 0.000000
H35   H     H_    0.574562 0.828859 0.804872 0.000000
C41   C     C_3   0.569473 0.673266 0.640629 0.000000
C42   C     C_R   0.574846 0.677700 0.699483 0.000000
C43   C     C_R   0.682574 0.698861 0.731068 0.000000
C44   C     C_R   0.708590 0.698756 0.784053 0.000000
C45   C     C_R   0.620413 0.679821 0.805232 0.000000
N11   N     N_R   0.621786 0.683246 0.858847 0.000000
C46   C     C_R   0.510875 0.664090 0.860729 0.000000
N12   N     N_R   0.436877 0.648840 0.809295 0.000000
C47   C     C_R   0.510089 0.660084 0.775400 0.000000
C48   C     C_R   0.485190 0.657106 0.720286 0.000000
S6    S     S_3+2 0.474437 0.667625 0.928901 0.000000
O16   O     O_2   0.597988 0.687916 0.964527 0.000000
O17   O     O_2   0.489223 0.606322 0.930714 0.000000
O18   O     O_3   0.364545 0.719137 0.979985 0.000000
H36   H     H_    0.581459 0.715325 0.640122 0.000000
H37   H     H_    0.474695 0.664095 0.620640 0.000000
H38   H     H_    0.657385 0.640393 0.621278 0.000000
H39   H     H_    0.745629 0.716367 0.713749 0.000000
H40   H     H_    0.787270 0.720217 0.809046 0.000000
H41   H     H_    0.400229 0.640433 0.694886 0.000000
H42   H     H_    0.284847 0.701333 0.971178 0.000000
C49   C     C_3   0.325295 0.827865 0.003394 0.000000
C50   C     C_R   0.211502 0.801093 0.967397 0.000000
C51   C     C_R   0.089743 0.823533 0.992015 0.000000
C52   C     C_R   0.985615 0.795176 0.963005 0.000000
C53   C     C_R   0.005536 0.744497 0.910471 0.000000
N13   N     N_R   0.918294 0.709120 0.878395 0.000000
C54   C     C_R   0.988789 0.665543 0.829849 0.000000
N14   N     N_R   0.117801 0.672096 0.833749 0.000000
C55   C     C_R   0.122834 0.723202 0.884602 0.000000
C56   C     C_R   0.227180 0.751459 0.911944 0.000000
S7    S     S_3+2 0.920904 0.611361 0.762455 0.000000
O19   O     O_2   0.020278 0.554395 0.729301 0.000000
O20   O     O_2   0.911492 0.638556 0.718839 0.000000
O21   O     O_3   0.773083 0.586588 0.749977 0.000000
H43   H     H_    0.415103 0.806969 0.977299 0.000000
H44   H     H_    0.335919 0.820651 0.043736 0.000000
H45   H     H_    0.310148 0.877682 0.019583 0.000000
H46   H     H_    0.076611 0.862690 0.034434 0.000000
H47   H     H_    0.890986 0.813575 0.979955 0.000000
H48   H     H_    0.319348 0.732486 0.892866 0.000000
H49   H     H_    0.738726 0.589541 0.713520 0.000000
C57   C     C_3   0.565724 0.164932 0.608039 0.000000
C58   C     C_R   0.581235 0.210402 0.669999 0.000000
C59   C     C_R   0.543070 0.272289 0.685225 0.000000
C60   C     C_R   0.555141 0.315607 0.742693 0.000000
C61   C     C_R   0.605059 0.295504 0.783971 0.000000
N15   N     N_R   0.623696 0.329372 0.842223 0.000000
C62   C     C_R   0.690536 0.285297 0.858875 0.000000
N16   N     N_R   0.702297 0.226395 0.814941 0.000000
C63   C     C_R   0.648112 0.234702 0.768345 0.000000
C64   C     C_R   0.634870 0.191037 0.711903 0.000000
S8    S     S_3+2 0.794391 0.302022 0.922171 0.000000
O22   O     O_2   0.722925 0.317638 0.977822 0.000000
O23   O     O_2   0.857394 0.358593 0.938372 0.000000
O24   O     O_3   0.921178 0.247143 0.920781 0.000000
H50   H     H_    0.461528 0.168858 0.594915 0.000000
H51   H     H_    0.601472 0.118134 0.603653 0.000000
H52   H     H_    0.622286 0.173947 0.579017 0.000000
H53   H     H_    0.502988 0.286718 0.651888 0.000000
H54   H     H_    0.526051 0.363649 0.754740 0.000000
H55   H     H_    0.665760 0.143355 0.700470 0.000000
H56   H     H_    0.936885 0.256102 0.962689 0.000000
C65   C     C_3   0.346614 0.641323 0.050950 0.000000
C66   C     C_R   0.306712 0.597300 0.991182 0.000000
C67   C     C_R   0.201550 0.620320 0.966755 0.000000
C68   C     C_R   0.204310 0.606360 0.908318 0.000000
C69   C     C_R   0.293440 0.558242 0.873600 0.000000
N17   N     N_R   0.333568 0.545966 0.820350 0.000000
C70   C     C_R   0.438905 0.499504 0.811346 0.000000
N18   N     N_R   0.458091 0.480811 0.856074 0.000000
C71   C     C_R   0.369548 0.521967 0.895292 0.000000
C72   C     C_R   0.383838 0.542537 0.955089 0.000000
S9    S     S_3+2 0.557274 0.479480 0.755742 0.000000
O25   O     O_2   0.521902 0.522755 0.726370 0.000000
O26   O     O_2   0.548758 0.417908 0.702301 0.000000
O27   O     O_3   0.719925 0.481006 0.771526 0.000000
H57   H     H_    0.436238 0.623990 0.068213 0.000000
H58   H     H_    0.264474 0.659214 0.081655 0.000000
H59   H     H_    0.368575 0.681728 0.048267 0.000000
H60   H     H_    0.134338 0.659491 0.994736 0.000000
H61   H     H_    0.125855 0.627130 0.891063 0.000000
H62   H     H_    0.473203 0.524419 0.969197 0.000000
H63   H     H_    0.760697 0.437488 0.754314 0.000000
C73   C     C_3   0.390520 0.282564 0.086219 0.000000
C74   C     C_R   0.490051 0.258651 0.039531 0.000000
C75   C     C_R   0.465229 0.271113 0.990952 0.000000
C76   C     C_R   0.556637 0.248958 0.947193 0.000000
C77   C     C_R   0.674859 0.218451 0.955828 0.000000
N19   N     N_R   0.763999 0.180704 0.914957 0.000000
C78   C     C_R   0.855932 0.162911 0.947706 0.000000
N20   N     N_R   0.823977 0.180789 0.004476 0.000000
C79   C     C_R   0.704422 0.213135 0.006816 0.000000
C80   C     C_R   0.609409 0.226483 0.045963 0.000000
S10   S     S_3+2 0.001858 0.123238 0.918754 0.000000
O28   O     O_2   0.985420 0.058743 0.872328 0.000000
O29   O     O_2   0.084042 0.113185 0.967227 0.000000
O30   O     O_3   0.085888 0.159110 0.892404 0.000000
H64   H     H_    0.298391 0.266480 0.068810 0.000000
H65   H     H_    0.364035 0.331902 0.103024 0.000000
H66   H     H_    0.426650 0.271222 0.123029 0.000000
H67   H     H_    0.371687 0.295703 0.985955 0.000000
H68   H     H_    0.533547 0.252880 0.906558 0.000000
H69   H     H_    0.629676 0.214129 0.081605 0.000000
H70   H     H_    0.125977 0.188613 0.927959 0.000000
C81   C     C_3   0.680044 0.912125 0.544896 0.000000
C82   C     C_R   0.673779 0.958747 0.607281 0.000000
C83   C     C_R   0.763921 0.998535 0.628837 0.000000
C84   C     C_R   0.761883 0.041699 0.686992 0.000000
C85   C     C_R   0.664807 0.045448 0.721634 0.000000
N21   N     N_R   0.643628 0.084372 0.778720 0.000000
C86   C     C_R   0.535454 0.066937 0.789583 0.000000
N22   N     N_R   0.490768 0.019188 0.742472 0.000000
C87   C     C_R   0.574919 0.006830 0.700252 0.000000
C88   C     C_R   0.578962 0.962072 0.643476 0.000000
S11   S     S_3+2 0.463214 0.101274 0.858786 0.000000
O31   O     O_2   0.558307 0.140289 0.898325 0.000000
O32   O     O_2   0.469775 0.059958 0.889272 0.000000
O33   O     O_3   0.320605 0.152078 0.875713 0.000000
H71   H     H_    0.658368 0.935263 0.515736 0.000000
H72   H     H_    0.608029 0.881587 0.536577 0.000000
H73   H     H_    0.778898 0.884740 0.535557 0.000000
H74   H     H_    0.837739 0.995059 0.600126 0.000000
H75   H     H_    0.833048 0.071981 0.703777 0.000000
H76   H     H_    0.510606 0.930756 0.627392 0.000000
H77   H     H_    0.348153 0.192700 0.895894 0.000000
C89   C     C_3   0.102328 0.276225 0.808222 0.000000
C90   C     C_R   0.120854 0.212002 0.792338 0.000000
C91   C     C_R   0.234166 0.175351 0.764941 0.000000
C92   C     C_R   0.252685 0.113882 0.749302 0.000000
C93   C     C_R   0.156739 0.092183 0.763292 0.000000
N23   N     N_R   0.156662 0.035010 0.755462 0.000000
C94   C     C_R   0.030801 0.040121 0.772629 0.000000
N24   N     N_R   0.957820 0.098488 0.792768 0.000000
C95   C     C_R   0.041912 0.128966 0.786267 0.000000
C96   C     C_R   0.021085 0.189089 0.801257 0.000000
S12   S     S_3+2 0.960892 0.975628 0.758975 0.000000
O34   O     O_2   0.848237 0.989808 0.799930 0.000000
O35   O     O_2   0.057882 0.927217 0.770445 0.000000
O36   O     O_3   0.900898 0.940184 0.688868 0.000000
H78   H     H_    0.009791 0.298972 0.832075 0.000000
H79   H     H_    0.096364 0.277395 0.765179 0.000000
H80   H     H_    0.185816 0.293578 0.837396 0.000000
H81   H     H_    0.307288 0.194968 0.755272 0.000000
H82   H     H_    0.335149 0.084781 0.723912 0.000000
H83   H     H_    0.930464 0.217422 0.819488 0.000000
H84   H     H_    0.953426 0.950458 0.665342 0.000000
C97   C     C_3   0.589474 0.819582 0.411986 0.000000
C98   C     C_R   0.524212 0.765108 0.391235 0.000000
C99   C     C_R   0.490206 0.734891 0.332290 0.000000
C100  C     C_R   0.431765 0.683447 0.312214 0.000000
C101  C     C_R   0.401699 0.665051 0.352186 0.000000
N25   N     N_R   0.349226 0.615376 0.341865 0.000000
C102  C     C_R   0.347811 0.618622 0.397799 0.000000
N26   N     N_R   0.394083 0.669850 0.441111 0.000000
C103  C     C_R   0.430929 0.696058 0.410232 0.000000
C104  C     C_R   0.497067 0.744767 0.430809 0.000000
S13   S     S_3+2 0.302297 0.557819 0.411641 0.000000
O37   O     O_2   0.260800 0.522219 0.348340 0.000000
O38   O     O_2   0.165910 0.568903 0.434294 0.000000
O39   O     O_3   0.380714 0.491100 0.413469 0.000000
H85   H     H_    0.609197 0.827421 0.374138 0.000000
H86   H     H_    0.682502 0.812100 0.434513 0.000000
H87   H     H_    0.525139 0.860207 0.442920 0.000000
H88   H     H_    0.512574 0.750466 0.301297 0.000000
H89   H     H_    0.412320 0.658713 0.266293 0.000000
H90   H     H_    0.523263 0.767691 0.476722 0.000000
H91   H     H_    0.314101 0.463973 0.399794 0.000000
C105  C     C_3   0.718835 0.662086 0.318264 0.000000
C106  C     C_R   0.844461 0.621256 0.299274 0.000000
C107  C     C_R   0.950682 0.644829 0.295183 0.000000
C108  C     C_R   0.070166 0.608078 0.281075 0.000000
C109  C     C_R   0.078011 0.547081 0.265809 0.000000
N27   N     N_R   0.186656 0.505687 0.254552 0.000000
C110  C     C_R   0.143499 0.454916 0.250068 0.000000
N28   N     N_R   0.012953 0.465318 0.259877 0.000000
C111  C     C_R   0.976577 0.524501 0.271796 0.000000
C112  C     C_R   0.858295 0.561282 0.290868 0.000000
S14   S     S_3+2 0.246328 0.383206 0.235322 0.000000
O40   O     O_2   0.375197 0.377794 0.208086 0.000000
O41   O     O_2   0.188463 0.329860 0.186042 0.000000
O42   O     O_3   0.290324 0.360798 0.290258 0.000000
H92   H     H_    0.690409 0.665605 0.360612 0.000000
H93   H     H_    0.647242 0.641611 0.283811 0.000000
H94   H     H_    0.726263 0.708026 0.322967 0.000000
H95   H     H_    0.942592 0.692963 0.307084 0.000000
H96   H     H_    0.155293 0.628446 0.288809 0.000000
H97   H     H_    0.781149 0.546706 0.303538 0.000000
H98   H     H_    0.370848 0.330724 0.276166 0.000000
C113  C     C_3   0.626898 0.640488 0.169444 0.000000
C114  C     C_R   0.654530 0.585056 0.179852 0.000000
C115  C     C_R   0.779101 0.551602 0.172999 0.000000
C116  C     C_R   0.805265 0.501149 0.184788 0.000000
C117  C     C_R   0.705683 0.487809 0.206226 0.000000
N29   N     N_R   0.713765 0.456955 0.239174 0.000000
C118  C     C_R   0.587727 0.465546 0.254498 0.000000
N30   N     N_R   0.502826 0.500979 0.233317 0.000000
C119  C     C_R   0.581149 0.515420 0.204695 0.000000
C120  C     C_R   0.552245 0.562977 0.189872 0.000000
S15   S     S_3+2 0.553776 0.461672 0.318267 0.000000
O43   O     O_2   0.662313 0.426089 0.341024 0.000000
O44   O     O_2   0.434727 0.431758 0.311979 0.000000
O45   O     O_3   0.523077 0.532804 0.373870 0.000000
H99   H     H_    0.701035 0.670157 0.192633 0.000000
H100  H     H_    0.529427 0.666029 0.186440 0.000000
H101  H     H_    0.627262 0.626891 0.121755 0.000000
H102  H     H_    0.856528 0.565563 0.159307 0.000000
H103  H     H_    0.900905 0.474320 0.177316 0.000000
H104  H     H_    0.452970 0.582884 0.186850 0.000000
H105  H     H_    0.569309 0.557687 0.363117 0.000000
C121  C     C_3   0.114510 0.855306 0.894082 0.000000
C122  C     C_R   0.110098 0.908214 0.952910 0.000000
C123  C     C_R   0.993961 0.935537 0.982578 0.000000
C124  C     C_R   0.974850 0.997477 0.020231 0.000000
C125  C     C_R   0.075937 0.028677 0.028339 0.000000
N31   N     N_R   0.074794 0.089490 0.049273 0.000000
C126  C     C_R   0.206159 0.091002 0.046421 0.000000
N32   N     N_R   0.284631 0.033550 0.023213 0.000000
C127  C     C_R   0.197308 0.996838 0.011034 0.000000
C128  C     C_R   0.216283 0.937346 0.972050 0.000000
S16   S     S_3+2 0.264699 0.160060 0.061480 0.000000
O46   O     O_2   0.189041 0.215809 0.110961 0.000000
O47   O     O_2   0.238899 0.178556 0.010785 0.000000
O48   O     O_3   0.424716 0.164984 0.080856 0.000000
H106  H     H_    0.048412 0.824850 0.891756 0.000000
H107  H     H_    0.215836 0.831570 0.883604 0.000000
H108  H     H_    0.081020 0.872627 0.860906 0.000000
H109  H     H_    0.913546 0.910462 0.971273 0.000000
H110  H     H_    0.884214 0.019412 0.041657 0.000000
H111  H     H_    0.310341 0.916536 0.953883 0.000000
H112  H     H_    0.426790 0.179240 0.123996 0.000000
C129  C     C_3   0.527323 0.066908 0.225004 0.000000
C130  C     C_R   0.563979 0.094331 0.188206 0.000000
C131  C     C_R   0.657148 0.132702 0.209855 0.000000
C132  C     C_R   0.716039 0.147629 0.172862 0.000000
C133  C     C_R   0.682975 0.120985 0.114334 0.000000
N33   N     N_R   0.751324 0.114976 0.069700 0.000000
C134  C     C_R   0.695208 0.073573 0.021017 0.000000
N34   N     N_R   0.593255 0.053942 0.034038 0.000000
C135  C     C_R   0.586953 0.085941 0.093306 0.000000
C136  C     C_R   0.518948 0.075190 0.130439 0.000000
S17   S     S_3+2 0.774949 0.039830 0.951615 0.000000
O49   O     O_2   0.892674 0.072250 0.964931 0.000000
O50   O     O_2   0.707782 0.058306 0.904538 0.000000
O51   O     O_3   0.853250 0.966723 0.916370 0.000000
H113  H     H_    0.613828 0.036421 0.230771 0.000000
H114  H     H_    0.449465 0.039179 0.202981 0.000000
H115  H     H_    0.496778 0.102663 0.269202 0.000000
H116  H     H_    0.690644 0.147370 0.254982 0.000000
H117  H     H_    0.795571 0.173391 0.188362 0.000000
H118  H     H_    0.451771 0.042858 0.112654 0.000000
H119  H     H_    0.935264 0.970519 0.903106 0.000000
C137  C     C_3   0.843325 0.847589 0.736867 0.000000
C138  C     C_R   0.746233 0.879059 0.783100 0.000000
C139  C     C_R   0.773832 0.876776 0.836612 0.000000
C140  C     C_R   0.685017 0.906238 0.881144 0.000000
C141  C     C_R   0.570418 0.934634 0.868763 0.000000
N35   N     N_R   0.471125 0.963917 0.904580 0.000000
C142  C     C_R   0.374253 0.971949 0.868148 0.000000
N36   N     N_R   0.412935 0.956970 0.812654 0.000000
C143  C     C_R   0.538246 0.932283 0.814729 0.000000
C144  C     C_R   0.628474 0.908789 0.771892 0.000000
S18   S     S_3+2 0.247885 0.026590 0.899763 0.000000
O52   O     O_2   0.303640 0.073615 0.955662 0.000000
O53   O     O_2   0.137534 0.006198 0.918386 0.000000
O54   O     O_3   0.196478 0.061864 0.857046 0.000000
H120  H     H_    0.823656 0.869845 0.707448 0.000000
H121  H     H_    0.831875 0.799327 0.712385 0.000000
H122  H     H_    0.941356 0.850379 0.757508 0.000000
H123  H     H_    0.865633 0.852464 0.843616 0.000000
H124  H     H_    0.704946 0.906185 0.923590 0.000000
H125  H     H_    0.605958 0.910702 0.730313 0.000000
H126  H     H_    0.276248 0.053259 0.835671 0.000000
C145  C     C_3   0.210546 0.331254 0.538549 0.000000
C146  C     C_R   0.209256 0.395738 0.583001 0.000000
C147  C     C_R   0.280498 0.407610 0.634551 0.000000
C148  C     C_R   0.282893 0.466967 0.675717 0.000000
C149  C     C_R   0.212937 0.513367 0.664714 0.000000
N37   N     N_R   0.207083 0.573398 0.699547 0.000000
C150  C     C_R   0.125831 0.598825 0.667310 0.000000
N38   N     N_R   0.080836 0.556575 0.613714 0.000000
C151  C     C_R   0.139602 0.502767 0.614239 0.000000
C152  C     C_R   0.138822 0.443072 0.572246 0.000000
S19   S     S_3+2 0.094128 0.679784 0.692855 0.000000
O55   O     O_2   0.106767 0.712339 0.760108 0.000000
O56   O     O_2   0.953637 0.704715 0.683071 0.000000
O57   O     O_3   0.188427 0.713056 0.668688 0.000000
H127  H     H_    0.311741 0.309731 0.524333 0.000000
H128  H     H_    0.149408 0.329295 0.499807 0.000000
H129  H     H_    0.172266 0.305924 0.558407 0.000000
H130  H     H_    0.335737 0.370273 0.642180 0.000000
H131  H     H_    0.338223 0.476602 0.715484 0.000000
H132  H     H_    0.091215 0.430828 0.530686 0.000000
H133  H     H_    0.246759 0.678101 0.640306 0.000000
C153  C     C_3   0.193662 0.993491 0.532868 0.000000
C154  C     C_R   0.239155 0.939348 0.544658 0.000000
C155  C     C_R   0.251015 0.880805 0.498664 0.000000
C156  C     C_R   0.293715 0.829888 0.508885 0.000000
C157  C     C_R   0.324497 0.838674 0.565708 0.000000
N39   N     N_R   0.368077 0.796097 0.585968 0.000000
C158  C     C_R   0.374134 0.833559 0.646464 0.000000
N40   N     N_R   0.340453 0.895366 0.662777 0.000000
C159  C     C_R   0.307604 0.896527 0.610951 0.000000
C160  C     C_R   0.267125 0.947590 0.601781 0.000000
S20   S     S_3+2 0.434401 0.809182 0.700853 0.000000
O58   O     O_2   0.389133 0.751702 0.694854 0.000000
O59   O     O_2   0.375508 0.855157 0.760176 0.000000
O60   O     O_3   0.599147 0.802892 0.712778 0.000000
H134  H     H_    0.269165 0.023397 0.547995 0.000000
H135  H     H_    0.102626 0.019239 0.557004 0.000000
H136  H     H_    0.175143 0.978705 0.485126 0.000000
H137  H     H_    0.224873 0.874611 0.454371 0.000000
H138  H     H_    0.292024 0.785182 0.473636 0.000000
H139  H     H_    0.256963 0.992778 0.638036 0.000000
H140  H     H_    0.630595 0.810383 0.681702 0.000000
C161  C     C_3   0.575146 0.468814 0.574641 0.000000
C162  C     C_R   0.456494 0.504321 0.561067 0.000000
C163  C     C_R   0.345828 0.478423 0.541620 0.000000
C164  C     C_R   0.235058 0.512680 0.532108 0.000000
C165  C     C_R   0.237287 0.571553 0.542932 0.000000
N41   N     N_R   0.136135 0.608656 0.535121 0.000000
C166  C     C_R   0.192256 0.652821 0.532111 0.000000
N42   N     N_R   0.323419 0.646562 0.543839 0.000000
C167  C     C_R   0.347675 0.594215 0.551569 0.000000
C168  C     C_R   0.459640 0.561002 0.563783 0.000000
S21   S     S_3+2 0.111478 0.706288 0.504063 0.000000
O61   O     O_2   0.962402 0.717405 0.502098 0.000000
O62   O     O_2   0.141339 0.682349 0.438960 0.000000
O63   O     O_3   0.150901 0.777570 0.533850 0.000000
H141  H     H_    0.651294 0.497918 0.595288 0.000000
H142  H     H_    0.611983 0.428903 0.533616 0.000000
H143  H     H_    0.550149 0.452567 0.605887 0.000000
H144  H     H_    0.347801 0.431503 0.533007 0.000000
H145  H     H_    0.151096 0.493025 0.511410 0.000000
H146  H     H_    0.551296 0.574328 0.571324 0.000000
H147  H     H_    0.088506 0.799187 0.514998 0.000000
C169  C     C_3   0.017666 0.819875 0.631744 0.000000
C170  C     C_R   0.904286 0.786671 0.611958 0.000000
C171  C     C_R   0.780683 0.814960 0.603977 0.000000
C172  C     C_R   0.678542 0.781851 0.581821 0.000000
C173  C     C_R   0.703593 0.720741 0.568689 0.000000
N43   N     N_R   0.625145 0.678221 0.541647 0.000000
C174  C     C_R   0.710328 0.624765 0.529988 0.000000
N44   N     N_R   0.830969 0.633307 0.554638 0.000000
C175  C     C_R   0.824629 0.693877 0.576910 0.000000
C176  C     C_R   0.926005 0.725414 0.597739 0.000000
S22   S     S_3+2 0.668378 0.552048 0.485092 0.000000
O64   O     O_2   0.700042 0.504353 0.509151 0.000000
O65   O     O_2   0.722436 0.518565 0.423090 0.000000
O66   O     O_3   0.506865 0.560417 0.474016 0.000000
H148  H     H_    0.015598 0.849397 0.609406 0.000000
H149  H     H_    0.108717 0.786532 0.623383 0.000000
H150  H     H_    0.019205 0.847609 0.679404 0.000000
H151  H     H_    0.764539 0.862848 0.614129 0.000000
H152  H     H_    0.584393 0.803498 0.573944 0.000000
H153  H     H_    0.021646 0.702448 0.600005 0.000000
H154  H     H_    0.488575 0.600686 0.474359 0.000000
C177  C     C_3   0.307162 0.157308 0.235928 0.000000
C178  C     C_R   0.203976 0.204900 0.232270 0.000000
C179  C     C_R   0.195578 0.263731 0.277401 0.000000
C180  C     C_R   0.101603 0.309805 0.275400 0.000000
C181  C     C_R   0.021286 0.295264 0.227213 0.000000
N45   N     N_R   0.917457 0.331975 0.220435 0.000000
C182  C     C_R   0.850748 0.291958 0.174850 0.000000
N46   N     N_R   0.919645 0.233250 0.147777 0.000000
C183  C     C_R   0.024266 0.237004 0.184088 0.000000
C184  C     C_R   0.116603 0.190383 0.185198 0.000000
S23   S     S_3+2 0.678721 0.305719 0.179093 0.000000
O67   O     O_2   0.637313 0.358129 0.238901 0.000000
O68   O     O_2   0.620114 0.254049 0.180461 0.000000
O69   O     O_3   0.592554 0.327790 0.130188 0.000000
H155  H     H_    0.399253 0.175984 0.245533 0.000000
H156  H     H_    0.312213 0.115683 0.193554 0.000000
H157  H     H_    0.285303 0.147233 0.272096 0.000000
H158  H     H_    0.261869 0.273200 0.314658 0.000000
H159  H     H_    0.086360 0.354899 0.311800 0.000000
H160  H     H_    0.118590 0.143969 0.152092 0.000000
H161  H     H_    0.663750 0.321811 0.104608 0.000000
C185  C     C_3   0.788358 0.276166 0.370972 0.000000
C186  C     C_R   0.833774 0.336259 0.396218 0.000000
C187  C     C_R   0.848240 0.368175 0.456792 0.000000
C188  C     C_R   0.889929 0.424372 0.481665 0.000000
C189  C     C_R   0.921400 0.446571 0.444564 0.000000
N47   N     N_R   0.959194 0.500763 0.458494 0.000000
C190  C     C_R   0.948266 0.503537 0.405074 0.000000
N48   N     N_R   0.908394 0.452378 0.359178 0.000000
C191  C     C_R   0.896393 0.417265 0.385504 0.000000
C192  C     C_R   0.855670 0.361467 0.359783 0.000000
S24   S     S_3+2 0.913089 0.577719 0.406495 0.000000
O70   O     O_2   0.945670 0.615033 0.471029 0.000000
O71   O     O_2   0.767324 0.603564 0.410519 0.000000
O72   O     O_3   0.985110 0.615837 0.378756 0.000000
H162  H     H_    0.858936 0.243808 0.382776 0.000000
H163  H     H_    0.780130 0.257729 0.322447 0.000000
H164  H     H_    0.691999 0.281909 0.389070 0.000000
H165  H     H_    0.824431 0.349393 0.484927 0.000000
H166  H     H_    0.890745 0.450731 0.528921 0.000000
H167  H     H_    0.838412 0.338819 0.312878 0.000000
H168  H     H_    0.071667 0.592553 0.366630 0.000000

loop_
_geom_bond_atom_site_label_1
_geom_bond_atom_site_label_2
_geom_bond_distance
_geom_bond_site_symmetry_2
_ccdc_geom_bond_type
Zn1   N20   2.053 .      S
Zn1   N31   2.148 1_655  S
Zn1   N33   1.995 .      S
Zn1   N46   2.104 .      S
Zn2   N22   2.056 1_565  S
Zn2   N23   2.167 1_565  S
Zn2   N36   2.071 .      S
Zn2   N40   2.110 .      S
Zn3   N38   2.158 1_655  S
Zn3   N41   1.928 1_655  S
Zn3   N44   1.991 .      S
Zn3   N47   2.103 .      S
Zn4   N2    2.072 1_454  S
Zn4   N4    2.042 1_454  S
Zn4   N5    2.027 1_554  S
Zn4   N7    2.104 .      S
Zn5   N1    2.088 .      S
Zn5   N10   2.101 .      S
Zn5   N11   1.976 .      S
Zn5   N13   2.024 .      S
Zn6   N3    1.982 .      S
Zn6   N6    1.982 .      S
Zn6   N15   2.128 .      S
Zn6   N18   2.102 .      S
Zn7   N16   2.081 .      S
Zn7   N19   2.061 .      S
Zn7   N21   2.079 .      S
Zn7   N24   2.142 .      S
Zn8   N8    2.083 .      S
Zn8   N25   2.081 .      S
Zn8   N27   1.937 .      S
Zn8   N30   2.028 .      S
Zn9   N9    2.124 .      S
Zn9   N32   2.140 1_566  S
Zn9   N34   2.037 1_566  S
Zn9   N35   1.986 .      S
Zn10  N12   2.037 .      S
Zn10  N14   2.052 .      S
Zn10  N17   2.065 .      S
Zn10  N37   2.115 .      S
Zn11  N26   2.054 .      S
Zn11  N39   2.176 .      S
Zn11  N42   2.022 .      S
Zn11  N43   2.058 .      S
Zn12  N28   1.939 1_655  S
Zn12  N29   2.040 .      S
Zn12  N45   2.050 .      S
Zn12  N48   2.054 .      S
C1    C2    1.465 .      S
C1    H1    1.096 .      S
C1    H2    1.103 .      S
C1    H3    1.104 .      S
C3    H4    1.075 .      S
C4    H5    1.042 .      S
C6    S1    1.784 .      S
N2    Zn4   2.072 1_656  S
C8    H6    1.054 .      S
S1    O3    1.714 .      S
O3    H7    0.989 .      S
C9    C10   1.491 .      S
C9    H8    1.099 .      S
C9    H9    1.108 .      S
C9    H10   1.104 .      S
C11   H11   1.056 .      S
C12   H12   1.076 .      S
C14   S2    1.759 .      S
N4    Zn4   2.042 1_656  S
C16   H13   1.072 .      S
S2    O6    1.698 .      S
O6    H14   0.986 .      S
C17   C18   1.493 .      S
C17   H15   1.109 .      S
C17   H16   1.109 .      S
C17   H17   1.110 .      S
C19   H18   1.082 1_455  S
C20   H19   1.068 1_455  S
N5    Zn4   2.027 1_556  S
C22   S3    1.804 1_556  S
C24   H20   1.057 .      S
S3    C22   1.804 1_554  S
S3    O9    1.710 .      S
O9    H21   0.977 .      S
H18   C19   1.082 1_655  S
H19   C20   1.068 1_655  S
C25   C26   1.488 .      S
C25   H22   1.109 .      S
C25   H23   1.109 .      S
C25   H24   1.109 .      S
C27   H25   1.070 .      S
C28   H26   1.065 .      S
C30   S4    1.779 .      S
C32   H27   1.071 .      S
S4    O12   1.713 .      S
O12   H28   0.983 .      S
C33   C34   1.481 .      S
C33   H29   1.109 .      S
C33   H30   1.108 1_655  S
C33   H31   1.107 .      S
C35   H32   1.081 .      S
C36   H33   1.047 .      S
C38   S5    1.791 .      S
C40   H34   1.079 .      S
S5    O15   1.690 .      S
O15   H35   0.977 .      S
H30   C33   1.108 1_455  S
C41   C42   1.448 .      S
C41   H36   1.080 .      S
C41   H37   1.086 .      S
C41   H38   1.097 .      S
C43   H39   1.075 .      S
C44   H40   1.061 .      S
C46   S6    1.773 .      S
C48   H41   1.080 .      S
S6    O18   1.704 .      S
O18   H42   0.978 .      S
C49   C50   1.497 1_554  S
C49   H43   1.107 1_554  S
C49   H44   1.110 .      S
C49   H45   1.098 .      S
C50   C49   1.497 1_556  S
C51   H46   1.081 1_556  S
C52   H47   1.056 .      S
C54   S7    1.820 .      S
C56   H48   1.052 .      S
S7    O21   1.722 .      S
O21   H49   0.990 .      S
H43   C49   1.107 1_556  S
H46   C51   1.081 1_554  S
C57   C58   1.487 .      S
C57   H50   1.109 .      S
C57   H51   1.109 .      S
C57   H52   1.109 .      S
C59   H53   1.081 .      S
C60   H54   1.078 .      S
C62   S8    1.782 .      S
C64   H55   1.075 .      S
S8    O24   1.704 .      S
O24   H56   0.990 .      S
C65   C66   1.497 1_554  S
C65   H57   1.093 .      S
C65   H58   1.107 .      S
C65   H59   1.102 .      S
C66   C65   1.497 1_556  S
C67   H60   1.081 .      S
C68   H61   1.052 .      S
C70   S9    1.808 .      S
C72   H62   1.062 .      S
S9    O27   1.715 .      S
O27   H63   0.990 .      S
C73   C74   1.494 .      S
C73   H64   1.091 .      S
C73   H65   1.089 .      S
C73   H66   1.107 .      S
C75   H67   1.081 .      S
C76   H68   1.081 .      S
C78   S10   1.690 1_655  S
C80   H69   1.071 .      S
S10   C78   1.690 1_455  S
S10   O30   1.721 .      S
O30   H70   0.989 .      S
C81   C82   1.487 .      S
C81   H71   1.109 .      S
C81   H72   1.108 .      S
C81   H73   1.109 .      S
C83   H74   1.081 .      S
C84   H75   1.079 .      S
C86   S11   1.754 .      S
N22   Zn2   2.056 1_545  S
C88   H76   1.073 .      S
S11   O33   1.714 .      S
O33   H77   0.990 .      S
C89   C90   1.436 .      S
C89   H78   1.109 .      S
C89   H79   1.104 .      S
C89   H80   1.109 .      S
C91   H81   1.081 .      S
C92   H82   1.069 .      S
N23   Zn2   2.167 1_545  S
C94   S12   1.764 1_445  S
C96   H83   1.074 1_455  S
S12   C94   1.764 1_665  S
S12   O36   1.713 .      S
O36   H84   0.990 .      S
H83   C96   1.074 1_655  S
C97   C98   1.487 .      S
C97   H85   1.109 .      S
C97   H86   1.109 .      S
C97   H87   1.109 .      S
C99   H88   1.081 .      S
C100  H89   1.069 .      S
C102  S13   1.845 .      S
C104  H90   1.079 .      S
S13   O39   1.722 .      S
O39   H91   0.990 .      S
C105  C106  1.476 .      S
C105  H92   1.107 .      S
C105  H93   1.098 .      S
C105  H94   1.109 .      S
C107  H95   1.081 .      S
C108  H96   1.066 .      S
C110  S14   1.797 .      S
N28   Zn12  1.939 1_455  S
C112  H97   1.074 .      S
S14   O42   1.716 .      S
O42   H98   0.990 .      S
C113  C114  1.485 .      S
C113  H99   1.109 .      S
C113  H100  1.109 .      S
C113  H101  1.105 .      S
C115  H102  1.081 .      S
C116  H103  1.075 .      S
C118  S15   1.742 .      S
C120  H104  1.075 .      S
S15   O45   1.692 .      S
O45   H105  0.990 .      S
C121  C122  1.483 .      S
C121  H106  1.097 .      S
C121  H107  1.107 .      S
C121  H108  1.109 .      S
C123  H109  1.081 .      S
C124  H110  1.066 1_565  S
N31   Zn1   2.148 1_455  S
C126  S16   1.795 .      S
N32   Zn9   2.140 1_544  S
C128  H111  1.066 .      S
S16   O48   1.711 .      S
O48   H112  0.990 .      S
H110  C124  1.066 1_545  S
C129  C130  1.492 .      S
C129  H113  1.109 .      S
C129  H114  1.109 .      S
C129  H115  1.107 .      S
C131  H116  1.081 .      S
C132  H117  1.081 .      S
C134  S17   1.795 1_554  S
N34   Zn9   2.037 1_544  S
C136  H118  1.081 .      S
S17   C134  1.795 1_556  S
S17   O51   1.702 1_545  S
O51   S17   1.702 1_565  S
O51   H119  0.988 .      S
C137  C138  1.464 .      S
C137  H120  1.097 .      S
C137  H121  1.099 .      S
C137  H122  1.106 .      S
C139  H123  1.079 .      S
C140  H124  1.080 .      S
C142  S18   1.672 1_565  S
C144  H125  1.081 .      S
S18   C142  1.672 1_545  S
S18   O54   1.672 .      S
O54   H126  0.979 .      S
C145  C146  1.488 .      S
C145  H127  1.109 .      S
C145  H128  1.108 .      S
C145  H129  1.109 .      S
C147  H130  1.081 .      S
C148  H131  1.066 .      S
C150  S19   1.786 .      S
N38   Zn3   2.158 1_455  S
C152  H132  1.061 .      S
S19   O57   1.707 .      S
O57   H133  0.987 .      S
C153  C154  1.487 .      S
C153  H134  1.109 1_565  S
C153  H135  1.109 1_565  S
C153  H136  1.109 .      S
C155  H137  1.081 .      S
C156  H138  1.072 .      S
C158  S20   1.764 .      S
C160  H139  1.081 .      S
S20   O60   1.713 .      S
O60   H140  0.987 .      S
H134  C153  1.109 1_545  S
H135  C153  1.109 1_545  S
C161  C162  1.489 .      S
C161  H141  1.109 .      S
C161  H142  1.109 .      S
C161  H143  1.109 .      S
C163  H144  1.080 .      S
C164  H145  1.063 .      S
N41   Zn3   1.928 1_455  S
C166  S21   1.814 .      S
C168  H146  1.046 .      S
S21   O63   1.699 .      S
O63   H147  0.991 .      S
C169  C170  1.491 1_455  S
C169  H148  1.106 .      S
C169  H149  1.107 .      S
C169  H150  1.095 .      S
C170  C169  1.491 1_655  S
C171  H151  1.080 .      S
C172  H152  1.077 .      S
C174  S22   1.763 .      S
C176  H153  1.065 1_655  S
S22   O66   1.677 .      S
O66   H154  0.977 .      S
H153  C176  1.065 1_455  S
C177  C178  1.473 .      S
C177  H155  1.107 .      S
C177  H156  1.107 .      S
C177  H157  1.109 .      S
C179  H158  1.081 .      S
C180  H159  1.082 .      S
C182  S23   1.775 .      S
C184  H160  1.078 .      S
S23   O69   1.693 .      S
O69   H161  0.985 .      S
C185  C186  1.487 .      S
C185  H162  1.109 .      S
C185  H163  1.109 .      S
C185  H164  1.109 .      S
C187  H165  1.081 .      S
C188  H166  1.082 .      S
C190  S24   1.792 .      S
C192  H167  1.081 .      S
S24   O72   1.712 .      S
O72   H168  0.975 1_655  S
H168  O72   0.975 1_455  S
C2    C3    1.364 1_455  A
C2    C8    1.382 .      A
C3    C2    1.364 1_655  A
C3    C4    1.366 .      A
C4    C5    1.352 .      A
C5    N1    1.339 .      A
C5    C7    1.348 .      A
N1    C6    1.391 1_556  A
C6    N1    1.391 1_554  A
C6    N2    1.392 1_554  A
N2    C6    1.392 1_556  A
N2    C7    1.337 .      A
C7    C8    1.370 1_655  A
C8    C7    1.370 1_455  A
C10   C11   1.388 .      A
C10   C16   1.393 .      A
C11   C12   1.365 .      A
C12   C13   1.352 .      A
C13   N3    1.325 1_554  A
C13   C15   1.360 .      A
N3    C13   1.325 1_556  A
N3    C14   1.350 .      A
C14   N4    1.388 .      A
N4    C15   1.349 1_556  A
C15   N4    1.349 1_554  A
C15   C16   1.367 .      A
C18   C19   1.392 .      A
C18   C24   1.370 .      A
C19   C20   1.392 .      A
C20   C21   1.369 .      A
C21   N5    1.351 .      A
C21   C23   1.351 .      A
N5    C22   1.380 .      A
C22   N6    1.372 .      A
N6    C23   1.332 .      A
C23   C24   1.357 .      A
C26   C27   1.382 .      A
C26   C32   1.381 .      A
C27   C28   1.378 .      A
C28   C29   1.367 .      A
C29   N7    1.352 .      A
C29   C31   1.372 .      A
N7    C30   1.391 .      A
C30   N8    1.377 .      A
N8    C31   1.351 .      A
C31   C32   1.383 .      A
C34   C35   1.380 .      A
C34   C40   1.386 .      A
C35   C36   1.375 .      A
C36   C37   1.364 .      A
C37   N9    1.355 1_554  A
C37   C39   1.368 .      A
N9    C37   1.355 1_556  A
N9    C38   1.387 .      A
C38   N10   1.389 .      A
N10   C39   1.344 1_556  A
C39   N10   1.344 1_554  A
C39   C40   1.377 .      A
C42   C43   1.365 .      A
C42   C48   1.394 .      A
C43   C44   1.350 .      A
C44   C45   1.361 .      A
C45   N11   1.327 .      A
C45   C47   1.364 .      A
N11   C46   1.348 .      A
C46   N12   1.387 .      A
N12   C47   1.355 .      A
C47   C48   1.372 .      A
C50   C51   1.381 .      A
C50   C56   1.396 .      A
C51   C52   1.377 1_455  A
C52   C51   1.377 1_655  A
C52   C53   1.365 1_655  A
C53   C52   1.365 1_455  A
C53   N13   1.336 1_455  A
C53   C55   1.351 .      A
N13   C53   1.336 1_655  A
N13   C54   1.387 .      A
C54   N14   1.380 1_655  A
N14   C54   1.380 1_455  A
N14   C55   1.352 .      A
C55   C56   1.369 .      A
C58   C59   1.391 .      A
C58   C64   1.386 .      A
C59   C60   1.385 .      A
C60   C61   1.374 .      A
C61   N15   1.353 .      A
C61   C63   1.371 .      A
N15   C62   1.390 .      A
C62   N16   1.378 .      A
N16   C63   1.346 .      A
C63   C64   1.371 .      A
C66   C67   1.368 .      A
C66   C72   1.400 .      A
C67   C68   1.369 .      A
C68   C69   1.370 .      A
C69   N17   1.341 .      A
C69   C71   1.356 .      A
N17   C70   1.391 .      A
C70   N18   1.394 .      A
N18   C71   1.347 .      A
C71   C72   1.374 .      A
C74   C75   1.392 1_554  A
C74   C80   1.389 .      A
C75   C74   1.392 1_556  A
C75   C76   1.387 .      A
C76   C77   1.378 .      A
C77   N19   1.350 .      A
C77   C79   1.362 1_556  A
N19   C78   1.352 .      A
C78   N20   1.364 1_556  A
N20   C78   1.364 1_554  A
N20   C79   1.345 .      A
C79   C77   1.362 1_554  A
C79   C80   1.367 .      A
C82   C83   1.390 .      A
C82   C88   1.387 .      A
C83   C84   1.384 1_565  A
C84   C83   1.384 1_545  A
C84   C85   1.374 .      A
C85   N21   1.349 .      A
C85   C87   1.369 .      A
N21   C86   1.379 .      A
C86   N22   1.374 .      A
N22   C87   1.347 .      A
C87   C88   1.372 1_545  A
C88   C87   1.372 1_565  A
C90   C91   1.383 .      A
C90   C96   1.361 .      A
C91   C92   1.372 .      A
C92   C93   1.368 .      A
C93   N23   1.341 .      A
C93   C95   1.367 .      A
N23   C94   1.395 .      A
C94   N24   1.393 1_455  A
N24   C94   1.393 1_655  A
N24   C95   1.329 1_655  A
C95   N24   1.329 1_455  A
C95   C96   1.343 .      A
C98   C99   1.388 .      A
C98   C104  1.383 .      A
C99   C100  1.384 .      A
C100  C101  1.369 .      A
C101  N25   1.352 .      A
C101  C103  1.360 .      A
N25   C102  1.390 .      A
C102  N26   1.392 .      A
N26   C103  1.342 .      A
C103  C104  1.376 .      A
C106  C107  1.383 .      A
C106  C112  1.386 .      A
C107  C108  1.376 1_655  A
C108  C107  1.376 1_455  A
C108  C109  1.372 .      A
C109  N27   1.339 .      A
C109  C111  1.341 1_455  A
N27   C110  1.371 .      A
C110  N28   1.370 .      A
N28   C111  1.344 1_455  A
C111  C109  1.341 1_655  A
C111  N28   1.344 1_655  A
C111  C112  1.379 .      A
C114  C115  1.389 .      A
C114  C120  1.383 .      A
C115  C116  1.386 .      A
C116  C117  1.378 .      A
C117  N29   1.353 .      A
C117  C119  1.360 .      A
N29   C118  1.365 .      A
C118  N30   1.375 .      A
N30   C119  1.339 .      A
C119  C120  1.366 .      A
C122  C123  1.386 1_455  A
C122  C128  1.370 .      A
C123  C122  1.386 1_655  A
C123  C124  1.387 1_556  A
C124  C123  1.387 1_554  A
C124  C125  1.373 1_665  A
C125  C124  1.373 1_445  A
C125  N31   1.355 .      A
C125  C127  1.362 1_545  A
N31   C126  1.394 .      A
C126  N32   1.399 .      A
N32   C127  1.330 1_545  A
C127  C125  1.362 1_565  A
C127  N32   1.330 1_565  A
C127  C128  1.349 1_554  A
C128  C127  1.349 1_556  A
C130  C131  1.392 .      A
C130  C136  1.390 .      A
C131  C132  1.384 .      A
C132  C133  1.371 .      A
C133  N33   1.339 .      A
C133  C135  1.364 .      A
N33   C134  1.371 .      A
C134  N34   1.377 .      A
N34   C135  1.355 .      A
C135  C136  1.379 .      A
C138  C139  1.388 .      A
C138  C144  1.387 .      A
C139  C140  1.376 .      A
C140  C141  1.357 .      A
C141  N35   1.323 .      A
C141  C143  1.361 .      A
N35   C142  1.354 .      A
C142  N36   1.372 .      A
N36   C143  1.347 .      A
C143  C144  1.359 .      A
C146  C147  1.381 .      A
C146  C152  1.386 .      A
C147  C148  1.377 .      A
C148  C149  1.368 .      A
C149  N37   1.343 .      A
C149  C151  1.374 .      A
N37   C150  1.385 .      A
C150  N38   1.400 .      A
N38   C151  1.366 .      A
C151  C152  1.387 .      A
C154  C155  1.391 .      A
C154  C160  1.383 .      A
C155  C156  1.386 .      A
C156  C157  1.376 .      A
C157  N39   1.360 .      A
C157  C159  1.372 .      A
N39   C158  1.400 .      A
C158  N40   1.380 .      A
N40   C159  1.341 .      A
C159  C160  1.372 .      A
C162  C163  1.373 .      A
C162  C168  1.383 .      A
C163  C164  1.373 .      A
C164  C165  1.364 .      A
C165  N41   1.328 .      A
C165  C167  1.336 .      A
N41   C166  1.371 .      A
C166  N42   1.372 .      A
N42   C167  1.373 .      A
C167  C168  1.395 .      A
C170  C171  1.394 .      A
C170  C176  1.374 .      A
C171  C172  1.391 .      A
C172  C173  1.376 .      A
C173  N43   1.352 .      A
C173  C175  1.360 .      A
N43   C174  1.378 .      A
C174  N44   1.364 .      A
N44   C175  1.339 .      A
C175  C176  1.361 .      A
C178  C179  1.389 .      A
C178  C184  1.387 .      A
C179  C180  1.377 .      A
C180  C181  1.363 .      A
C181  N45   1.332 1_455  A
C181  C183  1.366 .      A
N45   C181  1.332 1_655  A
N45   C182  1.375 .      A
C182  N46   1.386 .      A
N46   C183  1.351 1_655  A
C183  N46   1.351 1_455  A
C183  C184  1.370 .      A
C186  C187  1.390 .      A
C186  C192  1.385 .      A
C187  C188  1.386 .      A
C188  C189  1.377 .      A
C189  N47   1.355 .      A
C189  C191  1.368 .      A
N47   C190  1.384 .      A
C190  N48   1.388 .      A
N48   C191  1.343 .      A
C191  C192  1.372 .      A
S1    O1    1.534 .      D
S1    O2    1.536 .      D
S2    O4    1.528 .      D
S2    O5    1.518 .      D
S3    O7    1.523 .      D
S3    O8    1.522 .      D
S4    O10   1.536 .      D
S4    O11   1.529 .      D
S5    O13   1.530 .      D
S5    O14   1.525 .      D
S6    O16   1.535 .      D
S6    O17   1.520 .      D
S7    O19   1.532 1_655  D
S7    O20   1.523 .      D
O19   S7    1.532 1_455  D
S8    O22   1.524 .      D
S8    O23   1.534 .      D
S9    O25   1.537 .      D
S9    O26   1.536 .      D
S10   O28   1.536 1_455  D
S10   O29   1.520 .      D
O28   S10   1.536 1_655  D
S11   O31   1.495 .      D
S11   O32   1.527 .      D
S12   O34   1.536 .      D
S12   O35   1.535 1_655  D
O35   S12   1.535 1_455  D
S13   O37   1.516 .      D
S13   O38   1.524 .      D
S14   O40   1.534 .      D
S14   O41   1.536 .      D
S15   O43   1.535 .      D
S15   O44   1.528 .      D
S16   O46   1.534 .      D
S16   O47   1.536 .      D
S17   O49   1.527 .      D
S17   O50   1.531 .      D
S18   O52   1.528 .      D
S18   O53   1.536 .      D
S19   O55   1.535 .      D
S19   O56   1.528 1_455  D
O56   S19   1.528 1_655  D
S20   O58   1.526 .      D
S20   O59   1.529 .      D
S21   O61   1.534 1_455  D
S21   O62   1.532 .      D
O61   S21   1.534 1_655  D
S22   O64   1.531 .      D
S22   O65   1.525 .      D
S23   O67   1.530 .      D
S23   O68   1.537 .      D
S24   O70   1.523 .      D
S24   O71   1.535 .      D
