data_str_m1_o12004_BOG
_audit_creation_date              2015-10-01T06:29:07-0700
_symmetry_space_group_name_H-M    P1
_symmetry_Int_Tables_number       1
_space_group_crystal_system       triclinic
loop_
_symmetry_equiv_pos_as_xyz
  x,y,z
_cell_length_a                    26.1016546
_cell_length_b                    41.2127950
_cell_length_c                    34.3595437
_cell_angle_alpha                 55.4546073
_cell_angle_beta                  110.243519
_cell_angle_gamma                 86.2660652
_cell_volume                      26880.9198408

loop_
_atom_site_label
_atom_site_type_symbol
_atom_site_description
_atom_site_fract_x
_atom_site_fract_y
_atom_site_fract_z
_atom_type_partial_charge
Zn1   Zn    Zn3+2 0.552677 0.235678 0.051601 0.000000
Zn2   Zn    Zn3+2 0.409567 0.363040 0.057953 0.000000
Zn3   Zn    Zn3+2 0.533875 0.236536 0.307615 0.000000
Zn4   Zn    Zn3+2 0.741578 0.395044 0.740371 0.000000
Zn5   Zn    Zn3+2 0.349340 0.450071 0.628307 0.000000
Zn6   Zn    Zn3+2 0.668007 0.101768 0.305392 0.000000
Zn7   Zn    Zn3+2 0.490491 0.949712 0.515299 0.000000
Zn8   Zn    Zn3+2 0.581362 0.618242 0.054854 0.000000
Zn9   Zn    Zn3+2 0.159811 0.035780 0.845392 0.000000
Zn10  Zn    Zn3+2 0.386745 0.129724 0.049080 0.000000
Zn11  Zn    Zn3+2 0.699900 0.344828 0.303004 0.000000
Zn12  Zn    Zn3+2 0.903635 0.038879 0.510546 0.000000
Zn13  Zn    Zn3+2 0.569542 0.523836 0.833872 0.000000
Zn14  Zn    Zn3+2 0.910743 0.196215 0.510031 0.000000
Zn15  Zn    Zn3+2 0.588697 0.362280 0.847517 0.000000
Zn16  Zn    Zn3+2 0.700866 0.646888 0.720081 0.000000
Zn17  Zn    Zn3+2 0.332485 0.676264 0.636312 0.000000
Zn18  Zn    Zn3+2 0.577133 0.465124 0.052953 0.000000
Zn19  Zn    Zn3+2 0.173838 0.280618 0.844535 0.000000
Zn20  Zn    Zn3+2 0.645724 0.743344 0.303507 0.000000
Zn21  Zn    Zn3+2 0.532916 0.611181 0.305907 0.000000
Zn22  Zn    Zn3+2 0.542217 0.854238 0.060172 0.000000
Zn23  Zn    Zn3+2 0.889319 0.602197 0.520475 0.000000
Zn24  Zn    Zn3+2 0.476760 0.860055 0.302081 0.000000
Zn25  Zn    Zn3+2 0.416376 0.726331 0.062157 0.000000
Zn26  Zn    Zn3+2 0.570808 0.939253 0.847460 0.000000
Zn27  Zn    Zn3+2 0.708366 0.496296 0.302491 0.000000
Zn28  Zn    Zn3+2 0.368018 0.973562 0.055655 0.000000
Zn29  Zn    Zn3+2 0.358555 0.833808 0.638598 0.000000
Zn30  Zn    Zn3+2 0.728751 0.798383 0.730403 0.000000
Zn31  Zn    Zn3+2 0.477504 0.017896 0.288167 0.000000
Zn32  Zn    Zn3+2 0.504110 0.537356 0.518441 0.000000
Zn33  Zn    Zn3+2 0.913135 0.448813 0.512035 0.000000
Zn34  Zn    Zn3+2 0.473664 0.702982 0.510712 0.000000
Zn35  Zn    Zn3+2 0.885514 0.518262 0.744157 0.000000
Zn36  Zn    Zn3+2 0.166445 0.566141 0.638514 0.000000
Zn37  Zn    Zn3+2 0.334500 0.073943 0.628747 0.000000
Zn38  Zn    Zn3+2 0.726891 0.034105 0.733991 0.000000
Zn39  Zn    Zn3+2 0.175756 0.873504 0.851487 0.000000
Zn40  Zn    Zn3+2 0.579012 0.778872 0.846957 0.000000
Zn41  Zn    Zn3+2 0.908361 0.296413 0.717087 0.000000
Zn42  Zn    Zn3+2 0.183274 0.342406 0.628668 0.000000
Zn43  Zn    Zn3+2 0.167955 0.185048 0.630077 0.000000
Zn44  Zn    Zn3+2 0.179720 0.954328 0.627265 0.000000
Zn45  Zn    Zn3+2 0.894152 0.140150 0.720671 0.000000
Zn46  Zn    Zn3+2 0.902358 0.903918 0.739615 0.000000
Zn47  Zn    Zn3+2 0.496181 0.107565 0.516064 0.000000
Zn48  Zn    Zn3+2 0.159115 0.431842 0.859450 0.000000
C1    C     C_3   0.437812 0.278929 0.871813 0.000000
N1    N     N_3   0.495928 0.267369 0.910811 0.000000
C2    C     C_3   0.509755 0.305133 0.893121 0.000000
C3    C     C_R   0.559662 0.299510 0.936993 0.000000
N2    N     N_R   0.582753 0.265185 0.991504 0.000000
C4    C     C_R   0.640107 0.254994 0.006003 0.000000
C5    C     C_R   0.682944 0.217129 0.049441 0.000000
C6    C     C_R   0.738353 0.211801 0.054323 0.000000
C7    C     C_R   0.749461 0.243191 0.014841 0.000000
C8    C     C_R   0.704822 0.279654 0.969163 0.000000
C9    C     C_R   0.650553 0.284488 0.965706 0.000000
N3    N     N_R   0.600534 0.313859 0.922193 0.000000
H1    H     H_    0.426904 0.250393 0.882508 0.000000
H2    H     H_    0.406384 0.298816 0.871029 0.000000
H3    H     H_    0.435625 0.296203 0.831929 0.000000
H4    H     H_    0.523228 0.251363 0.906540 0.000000
H5    H     H_    0.524795 0.311865 0.863845 0.000000
H6    H     H_    0.471613 0.332254 0.871626 0.000000
H7    H     H_    0.673908 0.191978 0.078920 0.000000
H8    H     H_    0.773071 0.182668 0.088779 0.000000
H9    H     H_    0.792744 0.238377 0.018790 0.000000
H10   H     H_    0.712334 0.302908 0.936860 0.000000
C10   C     C_3   0.645287 0.296585 0.123372 0.000000
N4    N     N_3   0.588135 0.304474 0.086117 0.000000
C11   C     C_3   0.556815 0.280713 0.114197 0.000000
C12   C     C_R   0.498400 0.291497 0.073700 0.000000
N5    N     N_R   0.457673 0.329793 0.046965 0.000000
C13   C     C_R   0.446654 0.348922 0.996741 0.000000
C14   C     C_R   0.423604 0.391124 0.955246 0.000000
C15   C     C_R   0.423847 0.404459 0.908293 0.000000
C16   C     C_R   0.438000 0.375271 0.902015 0.000000
C17   C     C_R   0.457083 0.332753 0.944275 0.000000
C18   C     C_R   0.466920 0.321022 0.992166 0.000000
N6    N     N_R   0.498920 0.283343 0.040098 0.000000
H11   H     H_    0.674017 0.303914 0.104509 0.000000
H12   H     H_    0.642813 0.316628 0.134663 0.000000
H13   H     H_    0.664516 0.263578 0.159537 0.000000
H14   H     H_    0.594275 0.294679 0.065492 0.000000
H15   H     H_    0.580590 0.247656 0.138784 0.000000
H16   H     H_    0.552279 0.288342 0.139033 0.000000
H17   H     H_    0.408237 0.413257 0.959568 0.000000
H18   H     H_    0.408062 0.437492 0.875060 0.000000
H19   H     H_    0.430450 0.386224 0.863048 0.000000
H20   H     H_    0.461158 0.308486 0.941274 0.000000
C19   C     C_3   0.402217 0.382460 0.182582 0.000000
N7    N     N_3   0.423851 0.384662 0.147722 0.000000
C20   C     C_3   0.478296 0.350537 0.179696 0.000000
C21   C     C_R   0.465656 0.314850 0.182242 0.000000
N8    N     N_R   0.423838 0.324081 0.136372 0.000000
C22   C     C_R   0.394287 0.298147 0.154978 0.000000
C23   C     C_R   0.347812 0.293432 0.126591 0.000000
C24   C     C_R   0.326674 0.262724 0.154972 0.000000
C25   C     C_R   0.352265 0.237346 0.210320 0.000000
C26   C     C_R   0.399901 0.241897 0.238276 0.000000
C27   C     C_R   0.420013 0.272646 0.209480 0.000000
N9    N     N_R   0.468280 0.279972 0.228568 0.000000
H21   H     H_    0.360083 0.408045 0.157839 0.000000
H22   H     H_    0.395263 0.352150 0.205533 0.000000
H23   H     H_    0.433063 0.386377 0.210083 0.000000
H24   H     H_    0.431891 0.412754 0.128135 0.000000
H25   H     H_    0.505839 0.361843 0.160011 0.000000
H26   H     H_    0.500025 0.340790 0.220405 0.000000
H27   H     H_    0.328985 0.312092 0.083858 0.000000
H28   H     H_    0.290486 0.257870 0.134092 0.000000
H29   H     H_    0.335653 0.213186 0.231802 0.000000
H30   H     H_    0.420914 0.221408 0.281193 0.000000
C28   C     C_3   0.700752 0.379881 0.584485 0.000000
N10   N     N_3   0.732325 0.354821 0.642160 0.000000
C29   C     C_3   0.767987 0.376629 0.654246 0.000000
C30   C     C_R   0.807520 0.348718 0.712914 0.000000
N11   N     N_R   0.797496 0.353697 0.746324 0.000000
C31   C     C_R   0.834627 0.317857 0.794823 0.000000
C32   C     C_R   0.837940 0.303995 0.842705 0.000000
C33   C     C_R   0.869313 0.262446 0.886475 0.000000
C34   C     C_R   0.892943 0.235573 0.880221 0.000000
C35   C     C_R   0.889375 0.250891 0.831276 0.000000
C36   C     C_R   0.865059 0.293010 0.790612 0.000000
N12   N     N_R   0.853345 0.313045 0.739587 0.000000
H31   H     H_    0.667824 0.366666 0.574199 0.000000
H32   H     H_    0.678707 0.412633 0.565968 0.000000
H33   H     H_    0.731079 0.379345 0.568782 0.000000
H34   H     H_    0.759844 0.326596 0.657193 0.000000
H35   H     H_    0.792590 0.386184 0.631370 0.000000
H36   H     H_    0.739706 0.405036 0.642386 0.000000
H37   H     H_    0.815741 0.324605 0.845728 0.000000
H38   H     H_    0.871966 0.250323 0.924708 0.000000
H39   H     H_    0.912507 0.202361 0.913220 0.000000
H40   H     H_    0.899066 0.230092 0.823401 0.000000
C37   C     C_3   0.801079 0.355994 0.927385 0.000000
N13   N     N_3   0.778925 0.357084 0.881445 0.000000
C38   C     C_3   0.718097 0.382985 0.848024 0.000000
C39   C     C_R   0.686625 0.369085 0.817777 0.000000
N14   N     N_R   0.705390 0.363047 0.788872 0.000000
C40   C     C_R   0.686433 0.331866 0.793445 0.000000
C41   C     C_R   0.698127 0.309462 0.777699 0.000000
C42   C     C_R   0.679169 0.275474 0.792575 0.000000
C43   C     C_R   0.647761 0.265412 0.820983 0.000000
C44   C     C_R   0.633532 0.289880 0.833764 0.000000
C45   C     C_R   0.653892 0.322706 0.819538 0.000000
N15   N     N_R   0.650086 0.347674 0.832248 0.000000
H41   H     H_    0.849115 0.345650 0.946259 0.000000
H42   H     H_    0.783985 0.387408 0.914928 0.000000
H43   H     H_    0.787924 0.333473 0.957061 0.000000
H44   H     H_    0.780672 0.326565 0.896551 0.000000
H45   H     H_    0.700024 0.377980 0.874792 0.000000
H46   H     H_    0.713372 0.416158 0.821762 0.000000
H47   H     H_    0.722013 0.317127 0.755410 0.000000
H48   H     H_    0.688802 0.256599 0.781849 0.000000
H49   H     H_    0.633495 0.238716 0.832334 0.000000
H50   H     H_    0.609342 0.282392 0.855977 0.000000
C46   C     C_3   0.402730 0.273574 0.754462 0.000000
N16   N     N_3   0.367214 0.312207 0.700175 0.000000
C47   C     C_3   0.330429 0.339567 0.701149 0.000000
C48   C     C_R   0.289882 0.376843 0.645565 0.000000
N17   N     N_R   0.243531 0.373229 0.614807 0.000000
C49   C     C_R   0.232360 0.405295 0.564881 0.000000
C50   C     C_R   0.187372 0.418133 0.518119 0.000000
C51   C     C_R   0.182910 0.452390 0.470599 0.000000
C52   C     C_R   0.222986 0.472856 0.470883 0.000000
C53   C     C_R   0.266209 0.460546 0.518520 0.000000
C54   C     C_R   0.268606 0.427598 0.565533 0.000000
N18   N     N_R   0.304354 0.412074 0.616189 0.000000
H51   H     H_    0.376064 0.261131 0.775054 0.000000
H52   H     H_    0.423365 0.249985 0.753271 0.000000
H53   H     H_    0.437073 0.279260 0.777208 0.000000
H54   H     H_    0.340222 0.304402 0.678563 0.000000
H55   H     H_    0.304632 0.322789 0.719971 0.000000
H56   H     H_    0.357239 0.349126 0.722758 0.000000
H57   H     H_    0.157009 0.401547 0.518356 0.000000
H58   H     H_    0.148762 0.462763 0.433102 0.000000
H59   H     H_    0.220248 0.498870 0.433518 0.000000
H60   H     H_    0.297691 0.475983 0.517753 0.000000
C55   C     C_3   0.518531 0.314216 0.720321 0.000000
N19   N     N_3   0.523233 0.346117 0.726714 0.000000
C56   C     C_3   0.482486 0.348235 0.745646 0.000000
C57   C     C_R   0.472875 0.385841 0.742182 0.000000
N20   N     N_R   0.505240 0.386432 0.783556 0.000000
C58   C     C_R   0.472997 0.422829 0.766474 0.000000
C59   C     C_R   0.475798 0.436197 0.795249 0.000000
C60   C     C_R   0.447790 0.477919 0.766940 0.000000
C61   C     C_R   0.416521 0.503902 0.711715 0.000000
C62   C     C_R   0.404478 0.487248 0.685642 0.000000
C63   C     C_R   0.430657 0.445176 0.715791 0.000000
N21   N     N_R   0.424195 0.421485 0.700515 0.000000
H61   H     H_    0.555984 0.304769 0.716513 0.000000
H62   H     H_    0.518693 0.286035 0.755852 0.000000
H63   H     H_    0.477948 0.326443 0.684213 0.000000
H64   H     H_    0.508945 0.374793 0.688982 0.000000
H65   H     H_    0.440554 0.350780 0.719618 0.000000
H66   H     H_    0.498197 0.319713 0.787313 0.000000
H67   H     H_    0.501477 0.415531 0.838027 0.000000
H68   H     H_    0.455859 0.490833 0.787442 0.000000
H69   H     H_    0.402813 0.537209 0.689042 0.000000
H70   H     H_    0.378471 0.506956 0.643112 0.000000
C64   C     C_3   0.741888 0.165074 0.371622 0.000000
N22   N     N_3   0.789597 0.127449 0.404969 0.000000
C65   C     C_3   0.793089 0.119365 0.370541 0.000000
C66   C     C_R   0.795747 0.076340 0.396494 0.000000
N23   N     N_R   0.841151 0.044335 0.446365 0.000000
C67   C     C_R   0.833564 0.010779 0.451209 0.000000
C68   C     C_R   0.872029 0.970676 0.489970 0.000000
C69   C     C_R   0.856529 0.939942 0.488397 0.000000
C70   C     C_R   0.801453 0.949474 0.451729 0.000000
C71   C     C_R   0.763558 0.990334 0.413185 0.000000
C72   C     C_R   0.782271 0.021673 0.410106 0.000000
N24   N     N_R   0.755584 0.064123 0.373389 0.000000
H71   H     H_    0.731595 0.170782 0.396175 0.000000
H72   H     H_    0.754120 0.188908 0.343752 0.000000
H73   H     H_    0.703228 0.164236 0.347349 0.000000
H74   H     H_    0.776906 0.104062 0.429512 0.000000
H75   H     H_    0.754884 0.139784 0.330821 0.000000
H76   H     H_    0.832892 0.123240 0.366324 0.000000
H77   H     H_    0.913451 0.963534 0.520165 0.000000
H78   H     H_    0.886064 0.908017 0.517737 0.000000
H79   H     H_    0.787695 0.924678 0.453538 0.000000
H80   H     H_    0.720416 0.996067 0.388700 0.000000
C73   C     C_3   0.617010 0.084737 0.153774 0.000000
N25   N     N_3   0.635049 0.113929 0.161255 0.000000
C74   C     C_3   0.593742 0.131013 0.170163 0.000000
C75   C     C_R   0.615398 0.160134 0.177433 0.000000
N26   N     N_R   0.660359 0.143359 0.226963 0.000000
C76   C     C_R   0.696224 0.164461 0.212966 0.000000
C77   C     C_R   0.753724 0.153752 0.244912 0.000000
C78   C     C_R   0.784066 0.178657 0.222394 0.000000
C79   C     C_R   0.756818 0.212965 0.168505 0.000000
C80   C     C_R   0.700023 0.221285 0.136073 0.000000
C81   C     C_R   0.670891 0.195594 0.158774 0.000000
N27   N     N_R   0.618157 0.194775 0.134320 0.000000
H81   H     H_    0.649593 0.070959 0.148685 0.000000
H82   H     H_    0.614025 0.059589 0.189304 0.000000
H83   H     H_    0.574735 0.101308 0.117595 0.000000
H84   H     H_    0.634130 0.138247 0.125674 0.000000
H85   H     H_    0.550450 0.147023 0.136739 0.000000
H86   H     H_    0.590249 0.106397 0.205079 0.000000
H87   H     H_    0.775914 0.124878 0.285210 0.000000
H88   H     H_    0.829390 0.171080 0.246775 0.000000
H89   H     H_    0.780496 0.232798 0.151381 0.000000
H90   H     H_    0.679084 0.248356 0.094590 0.000000
C82   C     C_3   0.479193 0.218710 0.189382 0.000000
N28   N     N_3   0.534426 0.194411 0.204958 0.000000
C83   C     C_3   0.575666 0.205624 0.231754 0.000000
C84   C     C_R   0.592236 0.176694 0.288383 0.000000
N29   N     N_R   0.627340 0.135873 0.319918 0.000000
C85   C     C_R   0.639017 0.122491 0.368993 0.000000
C86   C     C_R   0.678366 0.085564 0.416557 0.000000
C87   C     C_R   0.699394 0.084276 0.460291 0.000000
C88   C     C_R   0.680161 0.118976 0.456042 0.000000
C89   C     C_R   0.636745 0.154526 0.408769 0.000000
C90   C     C_R   0.615363 0.154722 0.366314 0.000000
N30   N     N_R   0.581786 0.188856 0.315872 0.000000
H91   H     H_    0.445662 0.208790 0.174197 0.000000
H92   H     H_    0.479805 0.212784 0.224921 0.000000
H93   H     H_    0.470576 0.251957 0.157523 0.000000
H94   H     H_    0.534694 0.205145 0.169521 0.000000
H95   H     H_    0.614983 0.202475 0.227150 0.000000
H96   H     H_    0.556704 0.237641 0.216850 0.000000
H97   H     H_    0.695997 0.059519 0.419491 0.000000
H98   H     H_    0.734536 0.056804 0.497037 0.000000
H99   H     H_    0.699772 0.119340 0.488829 0.000000
H100  H     H_    0.622739 0.181899 0.404739 0.000000
C91   C     C_3   0.319593 0.086032 0.388766 0.000000
N31   N     N_3   0.381283 0.062177 0.421560 0.000000
C92   C     C_3   0.404010 0.067658 0.461690 0.000000
C93   C     C_R   0.465541 0.039371 0.501400 0.000000
N32   N     N_R   0.492006 0.002216 0.512827 0.000000
C94   C     C_R   0.546502 0.001895 0.525878 0.000000
C95   C     C_R   0.584399 0.982721 0.520626 0.000000
C96   C     C_R   0.633936 0.992316 0.522970 0.000000
C97   C     C_R   0.644281 0.020688 0.530674 0.000000
C98   C     C_R   0.602428 0.043420 0.529910 0.000000
C99   C     C_R   0.553993 0.033140 0.527691 0.000000
N33   N     N_R   0.504167 0.056960 0.514315 0.000000
H101  H     H_    0.312018 0.118271 0.375524 0.000000
H102  H     H_    0.303004 0.087677 0.353094 0.000000
H103  H     H_    0.296148 0.070419 0.411959 0.000000
H104  H     H_    0.400918 0.075459 0.396991 0.000000
H105  H     H_    0.403923 0.100274 0.441777 0.000000
H106  H     H_    0.376344 0.063132 0.481365 0.000000
H107  H     H_    0.572584 0.964263 0.509088 0.000000
H108  H     H_    0.666285 0.976526 0.521004 0.000000
H109  H     H_    0.685044 0.024787 0.535698 0.000000
H110  H     H_    0.603176 0.071610 0.524176 0.000000
C100  C     C_3   0.493618 0.840836 0.549709 0.000000
N34   N     N_3   0.442355 0.834670 0.555874 0.000000
C101  C     C_3   0.400591 0.875431 0.523669 0.000000
C102  C     C_R   0.411164 0.889836 0.555395 0.000000
N35   N     N_R   0.390529 0.877261 0.592254 0.000000
C103  C     C_R   0.392542 0.907039 0.597589 0.000000
C104  C     C_R   0.376742 0.911177 0.629092 0.000000
C105  C     C_R   0.361147 0.950861 0.613745 0.000000
C106  C     C_R   0.362000 0.983943 0.568015 0.000000
C107  C     C_R   0.389299 0.976161 0.544837 0.000000
C108  C     C_R   0.408902 0.936438 0.563705 0.000000
N36   N     N_R   0.428268 0.924496 0.540875 0.000000
H111  H     H_    0.530700 0.813196 0.585852 0.000000
H112  H     H_    0.490106 0.844503 0.514367 0.000000
H113  H     H_    0.500424 0.868589 0.545519 0.000000
H114  H     H_    0.452606 0.820746 0.595294 0.000000
H115  H     H_    0.404242 0.897556 0.486803 0.000000
H116  H     H_    0.356318 0.873624 0.512342 0.000000
H117  H     H_    0.369265 0.886245 0.659912 0.000000
H118  H     H_    0.341660 0.956738 0.633184 0.000000
H119  H     H_    0.340915 0.015856 0.550078 0.000000
H120  H     H_    0.386920 0.000163 0.507870 0.000000
C109  C     C_3   0.516826 0.913231 0.664433 0.000000
N37   N     N_3   0.542736 0.884124 0.660907 0.000000
C110  C     C_3   0.593882 0.891378 0.657922 0.000000
C111  C     C_R   0.606138 0.876040 0.632129 0.000000
N38   N     N_R   0.658639 0.846113 0.656534 0.000000
C112  C     C_R   0.662356 0.854160 0.614518 0.000000
C113  C     C_R   0.710942 0.840429 0.614108 0.000000
C114  C     C_R   0.707243 0.854540 0.565783 0.000000
C115  C     C_R   0.654292 0.879891 0.520374 0.000000
C116  C     C_R   0.606134 0.893751 0.522765 0.000000
C117  C     C_R   0.612611 0.882950 0.569209 0.000000
N39   N     N_R   0.574320 0.898385 0.577579 0.000000
H121  H     H_    0.485141 0.902772 0.679099 0.000000
H122  H     H_    0.551061 0.913768 0.693247 0.000000
H123  H     H_    0.496254 0.944154 0.624493 0.000000
H124  H     H_    0.515885 0.891665 0.624722 0.000000
H125  H     H_    0.586962 0.925318 0.633019 0.000000
H126  H     H_    0.629297 0.874147 0.698280 0.000000
H127  H     H_    0.750457 0.819409 0.650236 0.000000
H128  H     H_    0.744591 0.843899 0.563879 0.000000
H129  H     H_    0.651089 0.887559 0.483722 0.000000
H130  H     H_    0.562325 0.909238 0.492105 0.000000
C118  C     C_3   0.404452 0.623746 0.977953 0.000000
N40   N     N_3   0.457114 0.591374 0.026826 0.000000
C119  C     C_3   0.480811 0.563816 0.019452 0.000000
C120  C     C_R   0.545372 0.549478 0.043189 0.000000
N41   N     N_R   0.577743 0.573412 0.047591 0.000000
C121  C     C_R   0.627032 0.557286 0.051073 0.000000
C122  C     C_R   0.673941 0.570689 0.052730 0.000000
C123  C     C_R   0.721562 0.547962 0.058858 0.000000
C124  C     C_R   0.722554 0.511104 0.066456 0.000000
C125  C     C_R   0.674441 0.498694 0.064625 0.000000
C126  C     C_R   0.626253 0.523917 0.053117 0.000000
N42   N     N_R   0.575804 0.517197 0.048513 0.000000
H131  H     H_    0.373718 0.609099 0.968042 0.000000
H132  H     H_    0.383928 0.643801 0.984045 0.000000
H133  H     H_    0.414372 0.643516 0.944568 0.000000
H134  H     H_    0.442127 0.573297 0.054136 0.000000
H135  H     H_    0.466925 0.536329 0.037611 0.000000
H136  H     H_    0.464368 0.581648 0.976319 0.000000
H137  H     H_    0.673743 0.598374 0.048300 0.000000
H138  H     H_    0.759006 0.557919 0.060237 0.000000
H139  H     H_    0.761316 0.491630 0.075220 0.000000
H140  H     H_    0.675024 0.468689 0.076192 0.000000
C127  C     C_3   0.203617 0.074405 0.708832 0.000000
N43   N     N_3   0.142498 0.078562 0.694839 0.000000
C128  C     C_3   0.112708 0.102851 0.703663 0.000000
C129  C     C_R   0.153949 0.112505 0.732945 0.000000
N44   N     N_R   0.179606 0.087184 0.788182 0.000000
C130  C     C_R   0.221687 0.103473 0.797394 0.000000
C131  C     C_R   0.257687 0.096814 0.843134 0.000000
C132  C     C_R   0.305625 0.109448 0.844858 0.000000
C133  C     C_R   0.312673 0.132375 0.799589 0.000000
C134  C     C_R   0.267099 0.148922 0.751303 0.000000
C135  C     C_R   0.223308 0.133074 0.751429 0.000000
N45   N     N_R   0.179644 0.141386 0.708983 0.000000
H141  H     H_    0.230763 0.060950 0.750505 0.000000
H142  H     H_    0.221087 0.053046 0.703144 0.000000
H143  H     H_    0.209207 0.104345 0.682828 0.000000
H144  H     H_    0.143638 0.049067 0.722318 0.000000
H145  H     H_    0.079210 0.132080 0.665600 0.000000
H146  H     H_    0.091670 0.083941 0.727607 0.000000
H147  H     H_    0.250363 0.081618 0.877241 0.000000
H148  H     H_    0.338258 0.100943 0.881757 0.000000
H149  H     H_    0.351935 0.139705 0.801451 0.000000
H150  H     H_    0.266440 0.171975 0.714671 0.000000
C136  C     C_3   0.137258 0.126285 0.853506 0.000000
N46   N     N_3   0.096606 0.104059 0.852606 0.000000
C137  C     C_3   0.053013 0.125056 0.798404 0.000000
C138  C     C_R   0.032777 0.093455 0.794919 0.000000
N47   N     N_R   0.072112 0.057207 0.815838 0.000000
C139  C     C_R   0.038291 0.034526 0.813498 0.000000
C140  C     C_R   0.050425 0.001116 0.815200 0.000000
C141  C     C_R   0.011184 0.980922 0.814809 0.000000
C142  C     C_R   0.957706 0.996621 0.806936 0.000000
C143  C     C_R   0.941968 0.035246 0.793579 0.000000
C144  C     C_R   0.982543 0.054899 0.794754 0.000000
N48   N     N_R   0.975655 0.094419 0.777075 0.000000
H151  H     H_    0.171822 0.108690 0.895093 0.000000
H152  H     H_    0.156860 0.129182 0.828614 0.000000
H153  H     H_    0.115319 0.157800 0.838145 0.000000
H154  H     H_    0.075037 0.104848 0.872675 0.000000
H155  H     H_    0.016883 0.147350 0.789707 0.000000
H156  H     H_    0.071750 0.140502 0.770753 0.000000
H157  H     H_    0.083123 0.995488 0.806203 0.000000
H158  H     H_    0.018546 0.957787 0.810487 0.000000
H159  H     H_    0.925582 0.982020 0.803072 0.000000
H160  H     H_    0.898147 0.048774 0.780199 0.000000
C145  C     C_3   0.384156 0.245596 0.075624 0.000000
N49   N     N_3   0.432116 0.213719 0.090660 0.000000
C146  C     C_3   0.415553 0.216171 0.044304 0.000000
C147  C     C_R   0.460188 0.188516 0.049036 0.000000
N50   N     N_R   0.506443 0.200090 0.041144 0.000000
C148  C     C_R   0.516674 0.183322 0.019405 0.000000
C149  C     C_R   0.560518 0.181991 0.006551 0.000000
C150  C     C_R   0.555669 0.170039 0.975415 0.000000
C151  C     C_R   0.505277 0.163612 0.954438 0.000000
C152  C     C_R   0.464106 0.162198 0.971626 0.000000
C153  C     C_R   0.476081 0.166119 0.010705 0.000000
N51   N     N_R   0.444290 0.163658 0.035382 0.000000
H161  H     H_    0.363478 0.230547 0.101715 0.000000
H162  H     H_    0.400134 0.268478 0.079025 0.000000
H163  H     H_    0.350838 0.263329 0.033703 0.000000
H164  H     H_    0.432869 0.184583 0.120850 0.000000
H165  H     H_    0.376112 0.207471 0.036960 0.000000
H166  H     H_    0.409089 0.248290 0.010511 0.000000
H167  H     H_    0.596564 0.191020 0.018581 0.000000
H168  H     H_    0.588699 0.169579 0.963380 0.000000
H169  H     H_    0.499237 0.157982 0.926285 0.000000
H170  H     H_    0.425877 0.155488 0.957242 0.000000
C154  C     C_3   0.318366 0.280910 0.915030 0.000000
N52   N     N_3   0.300490 0.266826 0.883799 0.000000
C155  C     C_3   0.325603 0.222115 0.921039 0.000000
C156  C     C_R   0.285238 0.203934 0.941265 0.000000
N53   N     N_R   0.303881 0.167675 0.991815 0.000000
C157  C     C_R   0.253805 0.165634 0.995141 0.000000
C158  C     C_R   0.246862 0.138280 0.039256 0.000000
C159  C     C_R   0.193668 0.147646 0.037242 0.000000
C160  C     C_R   0.149656 0.184985 0.992485 0.000000
C161  C     C_R   0.157724 0.211996 0.948588 0.000000
C162  C     C_R   0.208346 0.199774 0.949405 0.000000
N54   N     N_R   0.226461 0.224445 0.914029 0.000000
H171  H     H_    0.362206 0.282942 0.921962 0.000000
H172  H     H_    0.287694 0.311527 0.894285 0.000000
H173  H     H_    0.317224 0.260016 0.952858 0.000000
H174  H     H_    0.322061 0.276107 0.860820 0.000000
H175  H     H_    0.337427 0.210257 0.902503 0.000000
H176  H     H_    0.365111 0.214262 0.953494 0.000000
H177  H     H_    0.283109 0.111798 0.075875 0.000000
H178  H     H_    0.187782 0.127279 0.072116 0.000000
H179  H     H_    0.109834 0.193696 0.992674 0.000000
H180  H     H_    0.126899 0.243141 0.916018 0.000000
C163  C     C_3   0.789300 0.248013 0.344536 0.000000
N55   N     N_3   0.776866 0.222092 0.388853 0.000000
C164  C     C_3   0.776655 0.237582 0.417798 0.000000
C165  C     C_R   0.807085 0.268033 0.406980 0.000000
N56   N     N_R   0.865578 0.253864 0.438235 0.000000
C166  C     C_R   0.882285 0.284361 0.406431 0.000000
C167  C     C_R   0.937848 0.284135 0.415120 0.000000
C168  C     C_R   0.945106 0.317175 0.374248 0.000000
C169  C     C_R   0.897373 0.348993 0.325607 0.000000
C170  C     C_R   0.841815 0.348401 0.317479 0.000000
C171  C     C_R   0.835083 0.315923 0.358916 0.000000
N57   N     N_R   0.785629 0.307674 0.358990 0.000000
H181  H     H_    0.752391 0.277625 0.313865 0.000000
H182  H     H_    0.833207 0.250118 0.357416 0.000000
H183  H     H_    0.792010 0.233868 0.325842 0.000000
H184  H     H_    0.808710 0.193361 0.414498 0.000000
H185  H     H_    0.732618 0.250677 0.408269 0.000000
H186  H     H_    0.799603 0.210887 0.461121 0.000000
H187  H     H_    0.975044 0.258577 0.451768 0.000000
H188  H     H_    0.988315 0.317760 0.379858 0.000000
H189  H     H_    0.903661 0.374203 0.293580 0.000000
H190  H     H_    0.805057 0.372224 0.278988 0.000000
C172  C     C_3   0.671187 0.253809 0.244874 0.000000
N58   N     N_3   0.650154 0.251369 0.279731 0.000000
C173  C     C_3   0.621775 0.293531 0.255908 0.000000
C174  C     C_R   0.615410 0.292192 0.297445 0.000000
N59   N     N_R   0.586344 0.268277 0.323325 0.000000
C175  C     C_R   0.597901 0.271519 0.362240 0.000000
C176  C     C_R   0.584704 0.251139 0.403886 0.000000
C177  C     C_R   0.599316 0.260501 0.438165 0.000000
C178  C     C_R   0.628949 0.288376 0.431967 0.000000
C179  C     C_R   0.647403 0.305270 0.393381 0.000000
C180  C     C_R   0.630650 0.296697 0.358595 0.000000
N60   N     N_R   0.644424 0.309574 0.318829 0.000000
H191  H     H_    0.633236 0.272223 0.205763 0.000000
H192  H     H_    0.704497 0.269190 0.243081 0.000000
H193  H     H_    0.689321 0.222337 0.257876 0.000000
H194  H     H_    0.684472 0.240819 0.314966 0.000000
H195  H     H_    0.648260 0.312963 0.242408 0.000000
H196  H     H_    0.580291 0.305286 0.222039 0.000000
H197  H     H_    0.566054 0.227165 0.411981 0.000000
H198  H     H_    0.588195 0.245549 0.470482 0.000000
H199  H     H_    0.638975 0.295852 0.458577 0.000000
H200  H     H_    0.673502 0.324985 0.390263 0.000000
C181  C     C_3   0.488616 0.462931 0.139424 0.000000
N61   N     N_3   0.531317 0.444585 0.133029 0.000000
C182  C     C_3   0.584715 0.420630 0.182581 0.000000
C183  C     C_R   0.634071 0.404322 0.179157 0.000000
N62   N     N_R   0.633208 0.414559 0.132928 0.000000
C184  C     C_R   0.682678 0.385549 0.152573 0.000000
C185  C     C_R   0.699848 0.374346 0.126957 0.000000
C186  C     C_R   0.752322 0.343429 0.154825 0.000000
C187  C     C_R   0.787030 0.323855 0.207939 0.000000
C188  C     C_R   0.767650 0.333383 0.233956 0.000000
C189  C     C_R   0.713919 0.362816 0.206361 0.000000
N63   N     N_R   0.683916 0.373248 0.225094 0.000000
H201  H     H_    0.445876 0.479023 0.103542 0.000000
H202  H     H_    0.484808 0.438162 0.174929 0.000000
H203  H     H_    0.501632 0.486147 0.143914 0.000000
H204  H     H_    0.538754 0.469403 0.104530 0.000000
H205  H     H_    0.596023 0.440087 0.194621 0.000000
H206  H     H_    0.578248 0.392899 0.212849 0.000000
H207  H     H_    0.674375 0.388455 0.086092 0.000000
H208  H     H_    0.766535 0.335021 0.134700 0.000000
H209  H     H_    0.828847 0.300316 0.229548 0.000000
H210  H     H_    0.795419 0.317819 0.274761 0.000000
C190  C     C_3   0.818165 0.065136 0.577495 0.000000
N64   N     N_3   0.838360 0.077873 0.539584 0.000000
C191  C     C_3   0.838449 0.119006 0.518773 0.000000
C192  C     C_R   0.884124 0.122888 0.503781 0.000000
N65   N     N_R   0.899288 0.100367 0.488613 0.000000
C193  C     C_R   0.922455 0.124945 0.457826 0.000000
C194  C     C_R   0.943075 0.119509 0.429619 0.000000
C195  C     C_R   0.966578 0.148115 0.401465 0.000000
C196  C     C_R   0.969276 0.181299 0.402241 0.000000
C197  C     C_R   0.947611 0.186619 0.430463 0.000000
C198  C     C_R   0.923486 0.158360 0.457263 0.000000
N66   N     N_R   0.901951 0.156996 0.488524 0.000000
H211  H     H_    0.801440 0.040263 0.581340 0.000000
H212  H     H_    0.854543 0.053089 0.615654 0.000000
H213  H     H_    0.785055 0.092761 0.562394 0.000000
H214  H     H_    0.808215 0.079408 0.509256 0.000000
H215  H     H_    0.796043 0.141729 0.483592 0.000000
H216  H     H_    0.846516 0.124582 0.547685 0.000000
H217  H     H_    0.939234 0.094686 0.427828 0.000000
H218  H     H_    0.983012 0.144564 0.378740 0.000000
H219  H     H_    0.988368 0.203157 0.380597 0.000000
H220  H     H_    0.950423 0.211789 0.431917 0.000000
C199  C     C_3   0.683558 0.351290 0.012231 0.000000
N67   N     N_3   0.673715 0.378288 0.957441 0.000000
C200  C     C_3   0.612805 0.404129 0.923284 0.000000
C201  C     C_R   0.600824 0.429649 0.867048 0.000000
N68   N     N_R   0.585136 0.472830 0.833159 0.000000
C202  C     C_R   0.575812 0.480651 0.787136 0.000000
C203  C     C_R   0.538672 0.515950 0.738864 0.000000
C204  C     C_R   0.523412 0.518310 0.694588 0.000000
C205  C     C_R   0.541560 0.483543 0.699560 0.000000
C206  C     C_R   0.572668 0.445972 0.749754 0.000000
C207  C     C_R   0.587348 0.445330 0.792949 0.000000
N69   N     N_R   0.599223 0.412439 0.842198 0.000000
H221  H     H_    0.730305 0.332413 0.039243 0.000000
H222  H     H_    0.670498 0.370494 0.022464 0.000000
H223  H     H_    0.658153 0.329905 0.017278 0.000000
H224  H     H_    0.681816 0.359054 0.948172 0.000000
H225  H     H_    0.584850 0.384375 0.930272 0.000000
H226  H     H_    0.603309 0.425639 0.930913 0.000000
H227  H     H_    0.516540 0.538741 0.737746 0.000000
H228  H     H_    0.497748 0.547491 0.656185 0.000000
H229  H     H_    0.528228 0.485333 0.664707 0.000000
H230  H     H_    0.579248 0.418244 0.753402 0.000000
C208  C     C_3   0.776604 0.473666 0.850588 0.000000
N70   N     N_3   0.734987 0.499518 0.849705 0.000000
C209  C     C_3   0.695114 0.535384 0.794722 0.000000
C210  C     C_R   0.663340 0.566941 0.793791 0.000000
N71   N     N_R   0.624876 0.559142 0.814760 0.000000
C211  C     C_R   0.612203 0.592530 0.811753 0.000000
C212  C     C_R   0.568338 0.602590 0.819095 0.000000
C213  C     C_R   0.545159 0.643183 0.796621 0.000000
C214  C     C_R   0.569060 0.672338 0.770118 0.000000
C215  C     C_R   0.617170 0.661006 0.766662 0.000000
C216  C     C_R   0.636535 0.620779 0.785984 0.000000
N72   N     N_R   0.668518 0.606518 0.772119 0.000000
H231  H     H_    0.809144 0.447781 0.892525 0.000000
H232  H     H_    0.753741 0.460789 0.831771 0.000000
H233  H     H_    0.799602 0.492054 0.828965 0.000000
H234  H     H_    0.757404 0.510189 0.869253 0.000000
H235  H     H_    0.719216 0.549700 0.772344 0.000000
H236  H     H_    0.663576 0.525132 0.776901 0.000000
H237  H     H_    0.547752 0.580496 0.835203 0.000000
H238  H     H_    0.506075 0.651845 0.797316 0.000000
H239  H     H_    0.547379 0.704473 0.748717 0.000000
H240  H     H_    0.633459 0.684150 0.743517 0.000000
C217  C     C_3   0.617545 0.795870 0.567261 0.000000
N73   N     N_3   0.666525 0.765417 0.619812 0.000000
C218  C     C_3   0.651746 0.757102 0.660617 0.000000
C219  C     C_R   0.705102 0.729868 0.711722 0.000000
N74   N     N_R   0.731673 0.688878 0.734387 0.000000
C220  C     C_R   0.784128 0.679554 0.772443 0.000000
C221  C     C_R   0.835730 0.648834 0.798188 0.000000
C222  C     C_R   0.884053 0.645378 0.835730 0.000000
C223  C     C_R   0.881301 0.673793 0.845226 0.000000
C224  C     C_R   0.831627 0.708064 0.813604 0.000000
C225  C     C_R   0.785275 0.711103 0.775619 0.000000
N75   N     N_R   0.737393 0.744629 0.736053 0.000000
H241  H     H_    0.632346 0.807721 0.536597 0.000000
H242  H     H_    0.584494 0.781668 0.560434 0.000000
H243  H     H_    0.598771 0.822208 0.563704 0.000000
H244  H     H_    0.701952 0.775655 0.622672 0.000000
H245  H     H_    0.634171 0.786329 0.652683 0.000000
H246  H     H_    0.620678 0.740209 0.662519 0.000000
H247  H     H_    0.841258 0.631143 0.785506 0.000000
H248  H     H_    0.924796 0.621035 0.856652 0.000000
H249  H     H_    0.919353 0.670867 0.874498 0.000000
H250  H     H_    0.830194 0.732534 0.817077 0.000000
C226  C     C_3   0.559709 0.602059 0.679704 0.000000
N76   N     N_3   0.536301 0.601247 0.712742 0.000000
C227  C     C_3   0.473871 0.614920 0.686569 0.000000
C228  C     C_R   0.454617 0.603383 0.726285 0.000000
N77   N     N_R   0.483064 0.566044 0.778218 0.000000
C229  C     C_R   0.440847 0.562588 0.792679 0.000000
C230  C     C_R   0.440750 0.527513 0.836092 0.000000
C231  C     C_R   0.391769 0.529949 0.842975 0.000000
C232  C     C_R   0.344259 0.566763 0.806002 0.000000
C233  C     C_R   0.342880 0.600235 0.759441 0.000000
C234  C     C_R   0.392184 0.597437 0.753705 0.000000
N78   N     N_R   0.399178 0.624141 0.710269 0.000000
H251  H     H_    0.575265 0.571217 0.691514 0.000000
H252  H     H_    0.526988 0.623531 0.637434 0.000000
H253  H     H_    0.599311 0.610239 0.686999 0.000000
H254  H     H_    0.545533 0.623104 0.717276 0.000000
H255  H     H_    0.453929 0.648860 0.656706 0.000000
H256  H     H_    0.457710 0.600225 0.668416 0.000000
H257  H     H_    0.477432 0.498798 0.863835 0.000000
H258  H     H_    0.390625 0.503216 0.877520 0.000000
H259  H     H_    0.307162 0.568330 0.812735 0.000000
H260  H     H_    0.304100 0.627349 0.729094 0.000000
C235  C     C_3   0.333893 0.696972 0.739379 0.000000
N79   N     N_3   0.384207 0.710381 0.746094 0.000000
C236  C     C_3   0.405441 0.714637 0.710195 0.000000
C237  C     C_R   0.359252 0.745283 0.654815 0.000000
N80   N     N_R   0.343098 0.788402 0.627207 0.000000
C238  C     C_R   0.299259 0.802587 0.580491 0.000000
C239  C     C_R   0.266175 0.843481 0.537750 0.000000
C240  C     C_R   0.220197 0.851695 0.494397 0.000000
C241  C     C_R   0.208492 0.819065 0.494890 0.000000
C242  C     C_R   0.243511 0.777868 0.538068 0.000000
C243  C     C_R   0.288973 0.770370 0.580556 0.000000
N81   N     N_R   0.326753 0.732924 0.626988 0.000000
H261  H     H_    0.330614 0.679935 0.777042 0.000000
H262  H     H_    0.293700 0.724263 0.707320 0.000000
H263  H     H_    0.338149 0.676263 0.729342 0.000000
H264  H     H_    0.416779 0.687196 0.784820 0.000000
H265  H     H_    0.442621 0.726045 0.714629 0.000000
H266  H     H_    0.419216 0.684142 0.719281 0.000000
H267  H     H_    0.276239 0.868273 0.538098 0.000000
H268  H     H_    0.192985 0.883683 0.460075 0.000000
H269  H     H_    0.172059 0.825931 0.460937 0.000000
H270  H     H_    0.234664 0.752462 0.538511 0.000000
C244  C     C_3   0.439433 0.591960 0.869834 0.000000
N82   N     N_3   0.494973 0.568560 0.883071 0.000000
C245  C     C_3   0.512010 0.525568 0.929602 0.000000
C246  C     C_R   0.567304 0.499432 0.944592 0.000000
N83   N     N_R   0.587106 0.500640 0.911112 0.000000
C247  C     C_R   0.643306 0.477624 0.945084 0.000000
C248  C     C_R   0.683493 0.468908 0.932217 0.000000
C249  C     C_R   0.740370 0.446368 0.971077 0.000000
C250  C     C_R   0.756009 0.434413 0.021212 0.000000
C251  C     C_R   0.714815 0.443134 0.033643 0.000000
C252  C     C_R   0.656699 0.463229 0.995437 0.000000
N84   N     N_R   0.607593 0.474596 0.997239 0.000000
H271  H     H_    0.419364 0.620647 0.828000 0.000000
H272  H     H_    0.410126 0.573805 0.874640 0.000000
H273  H     H_    0.445139 0.599449 0.896757 0.000000
H274  H     H_    0.525226 0.580729 0.894489 0.000000
H275  H     H_    0.521315 0.525398 0.963394 0.000000
H276  H     H_    0.478754 0.510998 0.926391 0.000000
H277  H     H_    0.670637 0.478485 0.893039 0.000000
H278  H     H_    0.772877 0.438701 0.962181 0.000000
H279  H     H_    0.801009 0.417897 0.051232 0.000000
H280  H     H_    0.730925 0.433758 0.072908 0.000000
C253  C     C_3   0.538777 0.404994 0.998212 0.000000
N85   N     N_3   0.573632 0.389718 0.052288 0.000000
C254  C     C_3   0.542355 0.378303 0.083281 0.000000
C255  C     C_R   0.493316 0.414214 0.057783 0.000000
N86   N     N_R   0.497534 0.453241 0.037453 0.000000
C256  C     C_R   0.440823 0.477450 0.007156 0.000000
C257  C     C_R   0.417417 0.519944 0.973094 0.000000
C258  C     C_R   0.358200 0.539324 0.942524 0.000000
C259  C     C_R   0.323061 0.515752 0.943169 0.000000
C260  C     C_R   0.347232 0.472970 0.975000 0.000000
C261  C     C_R   0.405805 0.454041 0.009048 0.000000
N87   N     N_R   0.437761 0.413241 0.041741 0.000000
H281  H     H_    0.560222 0.422723 0.974649 0.000000
H282  H     H_    0.537346 0.378579 0.997672 0.000000
H283  H     H_    0.495378 0.427463 0.978162 0.000000
H284  H     H_    0.583965 0.414640 0.048330 0.000000
H285  H     H_    0.524037 0.355109 0.084707 0.000000
H286  H     H_    0.571771 0.366254 0.124218 0.000000
H287  H     H_    0.444522 0.538007 0.967570 0.000000
H288  H     H_    0.339737 0.573086 0.915536 0.000000
H289  H     H_    0.277032 0.530950 0.916914 0.000000
H290  H     H_    0.320478 0.456337 0.969498 0.000000
C262  C     C_3   0.752291 0.589568 0.389412 0.000000
N88   N     N_3   0.691311 0.600142 0.376456 0.000000
C263  C     C_3   0.674048 0.643247 0.355221 0.000000
C264  C     C_R   0.610211 0.666883 0.324286 0.000000
N89   N     N_R   0.564027 0.653391 0.311913 0.000000
C265  C     C_R   0.518632 0.684817 0.291971 0.000000
C266  C     C_R   0.463708 0.683850 0.282765 0.000000
C267  C     C_R   0.423002 0.715989 0.269383 0.000000
C268  C     C_R   0.441178 0.744763 0.273885 0.000000
C269  C     C_R   0.499343 0.740531 0.291372 0.000000
C270  C     C_R   0.535437 0.714953 0.291803 0.000000
N90   N     N_R   0.593125 0.706365 0.308321 0.000000
H291  H     H_    0.757723 0.606201 0.353120 0.000000
H292  H     H_    0.775542 0.599492 0.412254 0.000000
H293  H     H_    0.772108 0.555875 0.411900 0.000000
H294  H     H_    0.689306 0.581641 0.412196 0.000000
H295  H     H_    0.692515 0.643421 0.388908 0.000000
H296  H     H_    0.692732 0.660602 0.328737 0.000000
H297  H     H_    0.455265 0.655957 0.292825 0.000000
H298  H     H_    0.379392 0.715660 0.262194 0.000000
H299  H     H_    0.411556 0.766775 0.270538 0.000000
H300  H     H_    0.517664 0.752960 0.310527 0.000000
C271  C     C_3   0.720419 0.836023 0.224397 0.000000
N91   N     N_3   0.671942 0.829434 0.236336 0.000000
C272  C     C_3   0.619640 0.846551 0.187714 0.000000
C273  C     C_R   0.611409 0.813643 0.182735 0.000000
N92   N     N_R   0.611850 0.821046 0.138387 0.000000
C274  C     C_R   0.658261 0.788526 0.161143 0.000000
C275  C     C_R   0.695879 0.787640 0.141520 0.000000
C276  C     C_R   0.744632 0.752459 0.173901 0.000000
C277  C     C_R   0.755837 0.719750 0.225280 0.000000
C278  C     C_R   0.721687 0.724070 0.246111 0.000000
C279  C     C_R   0.675360 0.759602 0.214181 0.000000
N93   N     N_R   0.644712 0.773561 0.229256 0.000000
H301  H     H_    0.725035 0.822834 0.204807 0.000000
H302  H     H_    0.714321 0.869866 0.198432 0.000000
H303  H     H_    0.760893 0.820179 0.262210 0.000000
H304  H     H_    0.665541 0.847569 0.247508 0.000000
H305  H     H_    0.582602 0.859880 0.188397 0.000000
H306  H     H_    0.625796 0.870415 0.153792 0.000000
H307  H     H_    0.689024 0.813597 0.102466 0.000000
H308  H     H_    0.773742 0.750330 0.158833 0.000000
H309  H     H_    0.792993 0.691770 0.249951 0.000000
H310  H     H_    0.730963 0.700725 0.286187 0.000000
C280  C     C_3   0.863631 0.726734 0.320628 0.000000
N94   N     N_3   0.822340 0.725521 0.340552 0.000000
C281  C     C_3   0.823475 0.682631 0.374387 0.000000
C282  C     C_R   0.787038 0.680014 0.400382 0.000000
N95   N     N_R   0.812158 0.654592 0.455589 0.000000
C283  C     C_R   0.766950 0.663557 0.462456 0.000000
C284  C     C_R   0.763716 0.645329 0.508797 0.000000
C285  C     C_R   0.712798 0.656709 0.507390 0.000000
C286  C     C_R   0.663906 0.685981 0.459908 0.000000
C287  C     C_R   0.665574 0.701548 0.413147 0.000000
C288  C     C_R   0.718094 0.691022 0.415194 0.000000
N96   N     N_R   0.727542 0.702620 0.373735 0.000000
H311  H     H_    0.859956 0.759723 0.291760 0.000000
H312  H     H_    0.908391 0.709025 0.354085 0.000000
H313  H     H_    0.854446 0.712921 0.300308 0.000000
H314  H     H_    0.781028 0.743818 0.308008 0.000000
H315  H     H_    0.810363 0.670485 0.352528 0.000000
H316  H     H_    0.868383 0.661856 0.406123 0.000000
H317  H     H_    0.797360 0.621212 0.546478 0.000000
H318  H     H_    0.712617 0.640567 0.544785 0.000000
H319  H     H_    0.623850 0.694176 0.459646 0.000000
H320  H     H_    0.625510 0.719315 0.377080 0.000000
C289  C     C_3   0.479100 0.845319 0.159138 0.000000
N97   N     N_3   0.508745 0.810966 0.215662 0.000000
C290  C     C_3   0.503751 0.827044 0.242557 0.000000
C291  C     C_R   0.556524 0.810518 0.291432 0.000000
N98   N     N_R   0.611000 0.788723 0.306112 0.000000
C292  C     C_R   0.645722 0.796070 0.337332 0.000000
C293  C     C_R   0.705012 0.786011 0.357808 0.000000
C294  C     C_R   0.733085 0.796078 0.389544 0.000000
C295  C     C_R   0.701487 0.815871 0.399821 0.000000
C296  C     C_R   0.641730 0.826936 0.376954 0.000000
C297  C     C_R   0.613940 0.817475 0.344983 0.000000
N99   N     N_R   0.556186 0.827134 0.316570 0.000000
H321  H     H_    0.493252 0.836414 0.138835 0.000000
H322  H     H_    0.431815 0.853270 0.145076 0.000000
H323  H     H_    0.490611 0.873192 0.149508 0.000000
H324  H     H_    0.551493 0.797874 0.227844 0.000000
H325  H     H_    0.497159 0.860047 0.217450 0.000000
H326  H     H_    0.467703 0.820741 0.252107 0.000000
H327  H     H_    0.729140 0.772228 0.347858 0.000000
H328  H     H_    0.779666 0.788361 0.406503 0.000000
H329  H     H_    0.723599 0.822777 0.425873 0.000000
H330  H     H_    0.618724 0.839623 0.387534 0.000000
C298  C     C_3   0.496310 0.489047 0.331904 0.000000
N100  N     N_3   0.523527 0.517499 0.303435 0.000000
C299  C     C_3   0.581005 0.506947 0.342384 0.000000
C300  C     C_R   0.608730 0.538056 0.316999 0.000000
N101  N     N_R   0.654542 0.529866 0.308285 0.000000
C301  C     C_R   0.671841 0.562662 0.296074 0.000000
C302  C     C_R   0.718813 0.569300 0.287823 0.000000
C303  C     C_R   0.725724 0.607525 0.266742 0.000000
C304  C     C_R   0.686103 0.637659 0.257031 0.000000
C305  C     C_R   0.645433 0.627208 0.274525 0.000000
C306  C     C_R   0.638278 0.589519 0.294326 0.000000
N102  N     N_R   0.596971 0.575587 0.307907 0.000000
H331  H     H_    0.449910 0.499614 0.304015 0.000000
H332  H     H_    0.518246 0.456975 0.348244 0.000000
H333  H     H_    0.499957 0.487701 0.365874 0.000000
H334  H     H_    0.499954 0.548329 0.283350 0.000000
H335  H     H_    0.577517 0.507395 0.373268 0.000000
H336  H     H_    0.608170 0.475400 0.360945 0.000000
H337  H     H_    0.749231 0.545570 0.296485 0.000000
H338  H     H_    0.761431 0.613919 0.257953 0.000000
H339  H     H_    0.689242 0.668292 0.239204 0.000000
H340  H     H_    0.617971 0.648779 0.270846 0.000000
C307  C     C_3   0.630588 0.618796 0.444081 0.000000
N103  N     N_3   0.609394 0.591246 0.434241 0.000000
C308  C     C_3   0.548714 0.602171 0.419707 0.000000
C309  C     C_R   0.525293 0.573119 0.414922 0.000000
N104  N     N_R   0.510580 0.576719 0.369508 0.000000
C310  C     C_R   0.469115 0.558818 0.370033 0.000000
C311  C     C_R   0.432337 0.559299 0.329820 0.000000
C312  C     C_R   0.386075 0.545626 0.333631 0.000000
C313  C     C_R   0.375241 0.534227 0.375652 0.000000
C314  C     C_R   0.411359 0.535394 0.414884 0.000000
C315  C     C_R   0.460290 0.545381 0.413327 0.000000
N105  N     N_R   0.497678 0.551944 0.444875 0.000000
H341  H     H_    0.678049 0.609544 0.461227 0.000000
H342  H     H_    0.610989 0.650840 0.406750 0.000000
H343  H     H_    0.617328 0.619392 0.470444 0.000000
H344  H     H_    0.629199 0.560341 0.469095 0.000000
H345  H     H_    0.539996 0.600360 0.449303 0.000000
H346  H     H_    0.524716 0.634201 0.383166 0.000000
H347  H     H_    0.436624 0.572639 0.294247 0.000000
H348  H     H_    0.356273 0.546217 0.302023 0.000000
H349  H     H_    0.336886 0.526116 0.376539 0.000000
H350  H     H_    0.398708 0.531118 0.443559 0.000000
C316  C     C_3   0.568070 0.722304 0.187588 0.000000
N106  N     N_3   0.527837 0.700254 0.200642 0.000000
C317  C     C_3   0.519327 0.674697 0.183744 0.000000
C318  C     C_R   0.466312 0.667429 0.182657 0.000000
N107  N     N_R   0.459355 0.647080 0.227829 0.000000
C319  C     C_R   0.400212 0.661826 0.205854 0.000000
C320  C     C_R   0.365386 0.656526 0.230148 0.000000
C321  C     C_R   0.306613 0.679219 0.198343 0.000000
C322  C     C_R   0.283250 0.708208 0.143310 0.000000
C323  C     C_R   0.318354 0.714114 0.119342 0.000000
C324  C     C_R   0.375638 0.689534 0.151080 0.000000
N108  N     N_R   0.416586 0.692792 0.135269 0.000000
H351  H     H_    0.546057 0.756230 0.159893 0.000000
H352  H     H_    0.600878 0.716048 0.223711 0.000000
H353  H     H_    0.590523 0.711705 0.172929 0.000000
H354  H     H_    0.487805 0.721865 0.182767 0.000000
H355  H     H_    0.514187 0.689850 0.144563 0.000000
H356  H     H_    0.551924 0.644468 0.208714 0.000000
H357  H     H_    0.382028 0.637062 0.272608 0.000000
H358  H     H_    0.279037 0.675589 0.216858 0.000000
H359  H     H_    0.237792 0.727109 0.119231 0.000000
H360  H     H_    0.301936 0.738848 0.077316 0.000000
C325  C     C_3   0.597125 0.952306 0.112911 0.000000
N109  N     N_3   0.546183 0.939363 0.107295 0.000000
C326  C     C_3   0.527872 0.938814 0.062718 0.000000
C327  C     C_R   0.477025 0.924278 0.054852 0.000000
N110  N     N_R   0.478697 0.897390 0.043514 0.000000
C328  C     C_R   0.424280 0.897681 0.027215 0.000000
C329  C     C_R   0.396269 0.887165 0.996350 0.000000
C330  C     C_R   0.339640 0.888823 0.986448 0.000000
C331  C     C_R   0.315609 0.897097 0.011305 0.000000
C332  C     C_R   0.342949 0.912615 0.035983 0.000000
C333  C     C_R   0.394539 0.917096 0.037508 0.000000
N111  N     N_R   0.423842 0.937482 0.051689 0.000000
H361  H     H_    0.632130 0.929008 0.154502 0.000000
H362  H     H_    0.612671 0.955377 0.085139 0.000000
H363  H     H_    0.586370 0.982557 0.104971 0.000000
H364  H     H_    0.513869 0.962240 0.097901 0.000000
H365  H     H_    0.520149 0.968991 0.025530 0.000000
H366  H     H_    0.563035 0.916674 0.070043 0.000000
H367  H     H_    0.416943 0.878336 0.979947 0.000000
H368  H     H_    0.315789 0.880286 0.962951 0.000000
H369  H     H_    0.274038 0.894216 0.008300 0.000000
H370  H     H_    0.323814 0.922495 0.051494 0.000000
C334  C     C_3   0.376442 0.799953 0.124644 0.000000
N112  N     N_3   0.420130 0.809269 0.106317 0.000000
C335  C     C_3   0.413896 0.795963 0.074552 0.000000
C336  C     C_R   0.464086 0.790499 0.064578 0.000000
N113  N     N_R   0.507129 0.809289 0.060828 0.000000
C337  C     C_R   0.544923 0.783051 0.063868 0.000000
C338  C     C_R   0.598443 0.783389 0.068144 0.000000
C339  C     C_R   0.638035 0.747330 0.088300 0.000000
C340  C     C_R   0.621730 0.712953 0.099809 0.000000
C341  C     C_R   0.564710 0.715827 0.086517 0.000000
C342  C     C_R   0.526750 0.751549 0.068784 0.000000
N114  N     N_R   0.474218 0.756913 0.066309 0.000000
H371  H     H_    0.371649 0.816128 0.140810 0.000000
H372  H     H_    0.333922 0.810526 0.091194 0.000000
H373  H     H_    0.389831 0.765785 0.156705 0.000000
H374  H     H_    0.459680 0.789435 0.140490 0.000000
H375  H     H_    0.410198 0.764822 0.097177 0.000000
H376  H     H_    0.372479 0.813537 0.038076 0.000000
H377  H     H_    0.609708 0.810539 0.057734 0.000000
H378  H     H_    0.682450 0.745431 0.097309 0.000000
H379  H     H_    0.653502 0.683476 0.119758 0.000000
H380  H     H_    0.553999 0.688050 0.098281 0.000000
C343  C     C_3   0.541657 0.825426 0.944117 0.000000
N115  N     N_3   0.516197 0.870761 0.905176 0.000000
C344  C     C_3   0.499946 0.888292 0.927356 0.000000
C345  C     C_R   0.549031 0.897823 0.949961 0.000000
N116  N     N_R   0.580517 0.917271 0.923528 0.000000
C346  C     C_R   0.621950 0.917672 0.959963 0.000000
C347  C     C_R   0.668146 0.931301 0.957076 0.000000
C348  C     C_R   0.705812 0.928408 0.999681 0.000000
C349  C     C_R   0.697386 0.911644 0.044313 0.000000
C350  C     C_R   0.651675 0.896906 0.047375 0.000000
C351  C     C_R   0.614699 0.899926 0.004814 0.000000
N117  N     N_R   0.569103 0.886188 0.000406 0.000000
H381  H     H_    0.538093 0.812786 0.922746 0.000000
H382  H     H_    0.587995 0.816282 0.970718 0.000000
H383  H     H_    0.517710 0.811539 0.966851 0.000000
H384  H     H_    0.479234 0.878713 0.872993 0.000000
H385  H     H_    0.462153 0.917484 0.895062 0.000000
H386  H     H_    0.489149 0.866455 0.959159 0.000000
H387  H     H_    0.676258 0.942930 0.923620 0.000000
H388  H     H_    0.742474 0.938953 0.998397 0.000000
H389  H     H_    0.727423 0.909371 0.077395 0.000000
H390  H     H_    0.646523 0.882712 0.082781 0.000000
C352  C     C_3   0.916527 0.615064 0.374037 0.000000
N118  N     N_3   0.887356 0.593657 0.405675 0.000000
C353  C     C_3   0.931516 0.558340 0.459023 0.000000
C354  C     C_R   0.904067 0.537623 0.494473 0.000000
N119  N     N_R   0.878970 0.557357 0.508443 0.000000
C355  C     C_R   0.839224 0.538883 0.516811 0.000000
C356  C     C_R   0.789989 0.554123 0.514875 0.000000
C357  C     C_R   0.754345 0.530463 0.523920 0.000000
C358  C     C_R   0.764326 0.495063 0.528700 0.000000
C359  C     C_R   0.808960 0.484257 0.521409 0.000000
C360  C     C_R   0.846820 0.505909 0.517080 0.000000
N120  N     N_R   0.889723 0.502258 0.505595 0.000000
H391  H     H_    0.883722 0.639403 0.331718 0.000000
H392  H     H_    0.941351 0.630132 0.388454 0.000000
H393  H     H_    0.946305 0.592557 0.376785 0.000000
H394  H     H_    0.863028 0.581425 0.389332 0.000000
H395  H     H_    0.952136 0.536098 0.455987 0.000000
H396  H     H_    0.963338 0.569543 0.474955 0.000000
H397  H     H_    0.780525 0.582780 0.508590 0.000000
H398  H     H_    0.718002 0.539518 0.526899 0.000000
H399  H     H_    0.735725 0.477084 0.536354 0.000000
H400  H     H_    0.814147 0.459145 0.520271 0.000000
C361  C     C_3   0.866891 0.459084 0.672213 0.000000
N121  N     N_3   0.865827 0.491813 0.675884 0.000000
C362  C     C_3   0.857600 0.526896 0.625024 0.000000
C363  C     C_R   0.881892 0.554718 0.630687 0.000000
N122  N     N_R   0.887243 0.557000 0.670324 0.000000
C364  C     C_R   0.902432 0.591597 0.654028 0.000000
C365  C     C_R   0.918524 0.607767 0.680294 0.000000
C366  C     C_R   0.930012 0.645042 0.654501 0.000000
C367  C     C_R   0.927173 0.664370 0.604479 0.000000
C368  C     C_R   0.915022 0.645910 0.580418 0.000000
C369  C     C_R   0.904298 0.608882 0.606876 0.000000
N123  N     N_R   0.892458 0.585605 0.591283 0.000000
H401  H     H_    0.862100 0.433310 0.705540 0.000000
H402  H     H_    0.830465 0.470283 0.634265 0.000000
H403  H     H_    0.908185 0.449318 0.673712 0.000000
H404  H     H_    0.907188 0.484102 0.703510 0.000000
H405  H     H_    0.879300 0.516990 0.609478 0.000000
H406  H     H_    0.811747 0.544520 0.597107 0.000000
H407  H     H_    0.920775 0.592761 0.719013 0.000000
H408  H     H_    0.941108 0.659215 0.673382 0.000000
H409  H     H_    0.935782 0.693491 0.584816 0.000000
H410  H     H_    0.913162 0.660508 0.541965 0.000000
C370  C     C_3   0.006696 0.480666 0.663294 0.000000
N124  N     N_3   0.014085 0.512776 0.618563 0.000000
C371  C     C_3   0.030116 0.541344 0.628250 0.000000
C372  C     C_R   0.026469 0.579484 0.580002 0.000000
N125  N     N_R   0.073376 0.593788 0.579902 0.000000
C373  C     C_R   0.045907 0.633546 0.532576 0.000000
C374  C     C_R   0.069181 0.664564 0.510217 0.000000
C375  C     C_R   0.031980 0.704145 0.464030 0.000000
C376  C     C_R   0.972484 0.712689 0.441424 0.000000
C377  C     C_R   0.949619 0.681232 0.463311 0.000000
C378  C     C_R   0.987298 0.641596 0.507235 0.000000
N126  N     N_R   0.973269 0.607591 0.535102 0.000000
H411  H     H_    0.002966 0.454547 0.662277 0.000000
H412  H     H_    0.042150 0.470359 0.700730 0.000000
H413  H     H_    0.968513 0.493621 0.662512 0.000000
H414  H     H_    0.973638 0.529030 0.585331 0.000000
H415  H     H_    0.001097 0.549657 0.640231 0.000000
H416  H     H_    0.074511 0.527334 0.659777 0.000000
H417  H     H_    0.115173 0.658696 0.527378 0.000000
H418  H     H_    0.049389 0.728922 0.446194 0.000000
H419  H     H_    0.943796 0.744163 0.406585 0.000000
H420  H     H_    0.903415 0.688222 0.447635 0.000000
C379  C     C_3   0.530298 0.875906 0.430238 0.000000
N127  N     N_3   0.558679 0.868985 0.404963 0.000000
C380  C     C_3   0.557602 0.908640 0.360712 0.000000
C381  C     C_R   0.500605 0.930577 0.312822 0.000000
N128  N     N_R   0.471062 0.911003 0.296035 0.000000
C382  C     C_R   0.416712 0.938793 0.262459 0.000000
C383  C     C_R   0.366469 0.929459 0.250257 0.000000
C384  C     C_R   0.314032 0.958232 0.227435 0.000000
C385  C     C_R   0.312212 0.995974 0.216810 0.000000
C386  C     C_R   0.362728 0.004492 0.229800 0.000000
C387  C     C_R   0.414963 0.974194 0.256286 0.000000
N129  N     N_R   0.467759 0.970522 0.287137 0.000000
H421  H     H_    0.517321 0.848587 0.452603 0.000000
H422  H     H_    0.561813 0.877027 0.459429 0.000000
H423  H     H_    0.492702 0.905397 0.400927 0.000000
H424  H     H_    0.536685 0.854535 0.391171 0.000000
H425  H     H_    0.566560 0.928815 0.371679 0.000000
H426  H     H_    0.591530 0.903340 0.350849 0.000000
H427  H     H_    0.368124 0.897985 0.266608 0.000000
H428  H     H_    0.274793 0.950539 0.219991 0.000000
H429  H     H_    0.271317 0.018359 0.200102 0.000000
H430  H     H_    0.359635 0.033367 0.221966 0.000000
C388  C     C_3   0.566153 0.913638 0.227257 0.000000
N130  N     N_3   0.510334 0.923156 0.225354 0.000000
C389  C     C_3   0.464451 0.940616 0.173244 0.000000
C390  C     C_R   0.417578 0.922155 0.176508 0.000000
N131  N     N_R   0.419107 0.889418 0.223530 0.000000
C391  C     C_R   0.372778 0.879773 0.206353 0.000000
C392  C     C_R   0.354772 0.848658 0.237648 0.000000
C393  C     C_R   0.306466 0.842957 0.212740 0.000000
C394  C     C_R   0.277199 0.868483 0.157581 0.000000
C395  C     C_R   0.296015 0.899658 0.126687 0.000000
C396  C     C_R   0.345178 0.904887 0.151888 0.000000
N132  N     N_R   0.373411 0.932099 0.131338 0.000000
H431  H     H_    0.600794 0.907060 0.263142 0.000000
H432  H     H_    0.574486 0.885996 0.229452 0.000000
H433  H     H_    0.567259 0.940391 0.191558 0.000000
H434  H     H_    0.507807 0.947580 0.227090 0.000000
H435  H     H_    0.445866 0.974689 0.149640 0.000000
H436  H     H_    0.481839 0.933385 0.153268 0.000000
H437  H     H_    0.377424 0.829215 0.280483 0.000000
H438  H     H_    0.291216 0.818740 0.236307 0.000000
H439  H     H_    0.238831 0.864221 0.138302 0.000000
H440  H     H_    0.270066 0.919230 0.084300 0.000000
C397  C     C_3   0.511156 0.688103 0.407773 0.000000
N133  N     N_3   0.499455 0.712043 0.423695 0.000000
C398  C     C_3   0.487664 0.755071 0.381554 0.000000
C399  C     C_R   0.461745 0.779660 0.392292 0.000000
N134  N     N_R   0.453263 0.761937 0.437203 0.000000
C400  C     C_R   0.436083 0.795515 0.432890 0.000000
C401  C     C_R   0.429498 0.795004 0.470721 0.000000
C402  C     C_R   0.403019 0.832382 0.456885 0.000000
C403  C     C_R   0.394781 0.869332 0.410105 0.000000
C404  C     C_R   0.412885 0.868722 0.377210 0.000000
C405  C     C_R   0.432302 0.831163 0.388002 0.000000
N135  N     N_R   0.451593 0.822068 0.362012 0.000000
H441  H     H_    0.544380 0.695846 0.394650 0.000000
H442  H     H_    0.528206 0.655175 0.442744 0.000000
H443  H     H_    0.470555 0.693505 0.376941 0.000000
H444  H     H_    0.536981 0.702401 0.456707 0.000000
H445  H     H_    0.528541 0.760399 0.381060 0.000000
H446  H     H_    0.456204 0.764263 0.342970 0.000000
H447  H     H_    0.439675 0.765778 0.508281 0.000000
H448  H     H_    0.388953 0.832705 0.482574 0.000000
H449  H     H_    0.377174 0.898802 0.400660 0.000000
H450  H     H_    0.412199 0.897556 0.346054 0.000000
C406  C     C_3   0.257417 0.678637 0.044830 0.000000
N136  N     N_3   0.288528 0.707677 0.026574 0.000000
C407  C     C_3   0.246369 0.749751 0.985509 0.000000
C408  C     C_R   0.276761 0.780595 0.966683 0.000000
N137  N     N_R   0.336642 0.770574 0.993311 0.000000
C409  C     C_R   0.343246 0.806150 0.958652 0.000000
C410  C     C_R   0.393212 0.812113 0.956812 0.000000
C411  C     C_R   0.389979 0.849979 0.915362 0.000000
C412  C     C_R   0.338102 0.880920 0.876438 0.000000
C413  C     C_R   0.288390 0.873653 0.876107 0.000000
C414  C     C_R   0.291940 0.835639 0.916979 0.000000
N138  N     N_R   0.247851 0.821577 0.919108 0.000000
H451  H     H_    0.225098 0.681716 0.010805 0.000000
H452  H     H_    0.288626 0.646169 0.075104 0.000000
H453  H     H_    0.235203 0.685089 0.063213 0.000000
H454  H     H_    0.307805 0.701040 0.008712 0.000000
H455  H     H_    0.216811 0.751717 0.951701 0.000000
H456  H     H_    0.220644 0.757104 0.000995 0.000000
H457  H     H_    0.431640 0.786603 0.978730 0.000000
H458  H     H_    0.426360 0.853479 0.908998 0.000000
H459  H     H_    0.335318 0.910178 0.843953 0.000000
H460  H     H_    0.249019 0.897730 0.843181 0.000000
C415  C     C_3   0.397319 0.780692 0.895544 0.000000
N139  N     N_3   0.409449 0.742376 0.947332 0.000000
C416  C     C_3   0.471873 0.720321 0.981070 0.000000
C417  C     C_R   0.481184 0.682664 0.033477 0.000000
N140  N     N_R   0.449709 0.683767 0.057789 0.000000
C418  C     C_R   0.457399 0.643283 0.093603 0.000000
C419  C     C_R   0.426281 0.626838 0.121095 0.000000
C420  C     C_R   0.436226 0.584423 0.150750 0.000000
C421  C     C_R   0.476331 0.559860 0.151872 0.000000
C422  C     C_R   0.508261 0.576868 0.125336 0.000000
C423  C     C_R   0.495996 0.619057 0.094343 0.000000
N141  N     N_R   0.512638 0.642748 0.056897 0.000000
H461  H     H_    0.364956 0.806575 0.884216 0.000000
H462  H     H_    0.437188 0.788385 0.895714 0.000000
H463  H     H_    0.374419 0.779015 0.863792 0.000000
H464  H     H_    0.390307 0.723069 0.941430 0.000000
H465  H     H_    0.489462 0.709917 0.963644 0.000000
H466  H     H_    0.494384 0.740508 0.986067 0.000000
H467  H     H_    0.390681 0.646351 0.115467 0.000000
H468  H     H_    0.410097 0.570869 0.170273 0.000000
H469  H     H_    0.478944 0.528097 0.169182 0.000000
H470  H     H_    0.533640 0.558788 0.121210 0.000000
C424  C     C_3   0.406285 0.866134 0.768324 0.000000
N142  N     N_3   0.455004 0.860934 0.810871 0.000000
C425  C     C_3   0.491546 0.884205 0.790576 0.000000
C426  C     C_R   0.551752 0.864564 0.834621 0.000000
N143  N     N_R   0.580408 0.884348 0.853192 0.000000
C427  C     C_R   0.631936 0.853736 0.892107 0.000000
C428  C     C_R   0.676490 0.854229 0.927279 0.000000
C429  C     C_R   0.727421 0.820386 0.962013 0.000000
C430  C     C_R   0.734605 0.789858 0.956298 0.000000
C431  C     C_R   0.687986 0.789069 0.922248 0.000000
C432  C     C_R   0.635513 0.819451 0.894444 0.000000
N144  N     N_R   0.584900 0.824100 0.859951 0.000000
H471  H     H_    0.372454 0.896723 0.741884 0.000000
H472  H     H_    0.420562 0.863019 0.743769 0.000000
H473  H     H_    0.386147 0.842266 0.786118 0.000000
H474  H     H_    0.479630 0.829197 0.838526 0.000000
H475  H     H_    0.492692 0.883921 0.759082 0.000000
H476  H     H_    0.475063 0.916903 0.773733 0.000000
H477  H     H_    0.672737 0.880439 0.927116 0.000000
H478  H     H_    0.763680 0.819845 0.990093 0.000000
H479  H     H_    0.776422 0.765765 0.979924 0.000000
H480  H     H_    0.692646 0.764755 0.918694 0.000000
C433  C     C_3   0.532845 0.084135 0.682400 0.000000
N145  N     N_3   0.520000 0.051698 0.722947 0.000000
C434  C     C_3   0.499974 0.025744 0.709400 0.000000
C435  C     C_R   0.462323 0.007906 0.733881 0.000000
N146  N     N_R   0.488107 0.983727 0.788624 0.000000
C436  C     C_R   0.449075 0.000256 0.795380 0.000000
C437  C     C_R   0.460989 0.002131 0.835984 0.000000
C438  C     C_R   0.421864 0.032791 0.826784 0.000000
C439  C     C_R   0.367650 0.055504 0.782433 0.000000
C440  C     C_R   0.354834 0.051210 0.743578 0.000000
C441  C     C_R   0.398870 0.027202 0.748409 0.000000
N147  N     N_R   0.404286 0.031851 0.708156 0.000000
H481  H     H_    0.535376 0.108872 0.686473 0.000000
H482  H     H_    0.575037 0.070071 0.688696 0.000000
H483  H     H_    0.499651 0.098611 0.641605 0.000000
H484  H     H_    0.488480 0.065494 0.726051 0.000000
H485  H     H_    0.475044 0.045483 0.666515 0.000000
H486  H     H_    0.537724 0.999967 0.725562 0.000000
H487  H     H_    0.502325 0.984798 0.870926 0.000000
H488  H     H_    0.434283 0.039318 0.854289 0.000000
H489  H     H_    0.335978 0.077541 0.777321 0.000000
H490  H     H_    0.313243 0.068896 0.708779 0.000000
C442  C     C_3   0.787605 0.871861 0.894935 0.000000
N148  N     N_3   0.747026 0.907061 0.880964 0.000000
C443  C     C_3   0.704396 0.931965 0.825196 0.000000
C444  C     C_R   0.669892 0.971487 0.807580 0.000000
N149  N     N_R   0.629832 0.972371 0.825423 0.000000
C445  C     C_R   0.625646 0.008546 0.817853 0.000000
C446  C     C_R   0.593745 0.024972 0.830886 0.000000
C447  C     C_R   0.592694 0.063839 0.817022 0.000000
C448  C     C_R   0.622948 0.085549 0.790298 0.000000
C449  C     C_R   0.655238 0.068435 0.777719 0.000000
C450  C     C_R   0.656901 0.029417 0.792857 0.000000
N150  N     N_R   0.685390 0.007328 0.784516 0.000000
H491  H     H_    0.823587 0.854502 0.935864 0.000000
H492  H     H_    0.765324 0.850851 0.892609 0.000000
H493  H     H_    0.804579 0.882463 0.866161 0.000000
H494  H     H_    0.769309 0.925434 0.886212 0.000000
H495  H     H_    0.725631 0.938891 0.799884 0.000000
H496  H     H_    0.674808 0.915078 0.822427 0.000000
H497  H     H_    0.570589 0.008022 0.851588 0.000000
H498  H     H_    0.567748 0.077545 0.826692 0.000000
H499  H     H_    0.621313 0.116063 0.779263 0.000000
H500  H     H_    0.678779 0.085187 0.757249 0.000000
C451  C     C_3   0.690561 0.469113 0.453666 0.000000
N151  N     N_3   0.718069 0.487811 0.419400 0.000000
C452  C     C_3   0.763597 0.453939 0.436274 0.000000
C453  C     C_R   0.802722 0.468434 0.411313 0.000000
N152  N     N_R   0.790286 0.475165 0.364472 0.000000
C454  C     C_R   0.841578 0.474231 0.363372 0.000000
C455  C     C_R   0.855735 0.476618 0.326958 0.000000
C456  C     C_R   0.910884 0.476577 0.332800 0.000000
C457  C     C_R   0.950335 0.474647 0.373998 0.000000
C458  C     C_R   0.935932 0.470983 0.411117 0.000000
C459  C     C_R   0.881722 0.469451 0.405877 0.000000
N153  N     N_R   0.859712 0.464463 0.438373 0.000000
H501  H     H_    0.658547 0.494193 0.445199 0.000000
H502  H     H_    0.669144 0.449144 0.447091 0.000000
H503  H     H_    0.722802 0.448725 0.496208 0.000000
H504  H     H_    0.737022 0.506500 0.426365 0.000000
H505  H     H_    0.788796 0.434145 0.479328 0.000000
H506  H     H_    0.743615 0.435396 0.425570 0.000000
H507  H     H_    0.824511 0.480128 0.293323 0.000000
H508  H     H_    0.922740 0.479256 0.304164 0.000000
H509  H     H_    0.992729 0.475890 0.377229 0.000000
H510  H     H_    0.966018 0.471028 0.441618 0.000000
C460  C     C_3   0.702592 0.470567 0.180928 0.000000
N154  N     N_3   0.693908 0.478775 0.214177 0.000000
C461  C     C_3   0.641160 0.514366 0.183268 0.000000
C462  C     C_R   0.655540 0.549891 0.179781 0.000000
N155  N     N_R   0.699927 0.541101 0.224111 0.000000
C463  C     C_R   0.728261 0.567493 0.201569 0.000000
C464  C     C_R   0.782235 0.569276 0.224770 0.000000
C465  C     C_R   0.805730 0.594013 0.192788 0.000000
C466  C     C_R   0.776141 0.616680 0.138333 0.000000
C467  C     C_R   0.720994 0.617038 0.115241 0.000000
C468  C     C_R   0.697870 0.592887 0.147213 0.000000
N156  N     N_R   0.649249 0.584840 0.131773 0.000000
H511  H     H_    0.736546 0.439725 0.206405 0.000000
H512  H     H_    0.662386 0.469866 0.157132 0.000000
H513  H     H_    0.718232 0.494560 0.155937 0.000000
H514  H     H_    0.730741 0.485086 0.228248 0.000000
H515  H     H_    0.618458 0.524116 0.143242 0.000000
H516  H     H_    0.612258 0.505251 0.201539 0.000000
H517  H     H_    0.807774 0.552672 0.266469 0.000000
H518  H     H_    0.848279 0.594791 0.210753 0.000000
H519  H     H_    0.795977 0.634521 0.113826 0.000000
H520  H     H_    0.698079 0.633793 0.073351 0.000000
C469  C     C_3   0.871281 0.372884 0.401142 0.000000
N157  N     N_3   0.815405 0.368121 0.382264 0.000000
C470  C     C_3   0.777222 0.407737 0.330781 0.000000
C471  C     C_R   0.716160 0.413393 0.318954 0.000000
N158  N     N_R   0.684021 0.390803 0.309848 0.000000
C472  C     C_R   0.631260 0.409872 0.298989 0.000000
C473  C     C_R   0.580971 0.400917 0.286746 0.000000
C474  C     C_R   0.530847 0.426534 0.273387 0.000000
C475  C     C_R   0.530532 0.462347 0.267983 0.000000
C476  C     C_R   0.580848 0.472036 0.277865 0.000000
C477  C     C_R   0.631402 0.443499 0.297694 0.000000
N159  N     N_R   0.684421 0.447053 0.309587 0.000000
H521  H     H_    0.871622 0.386068 0.421656 0.000000
H522  H     H_    0.906089 0.342178 0.428975 0.000000
H523  H     H_    0.880288 0.393423 0.367222 0.000000
H524  H     H_    0.798134 0.361596 0.407937 0.000000
H525  H     H_    0.785667 0.432703 0.332153 0.000000
H526  H     H_    0.784268 0.411946 0.298800 0.000000
H527  H     H_    0.578787 0.375475 0.286156 0.000000
H528  H     H_    0.490919 0.419939 0.263953 0.000000
H529  H     H_    0.489878 0.483617 0.253621 0.000000
H530  H     H_    0.580250 0.502059 0.267480 0.000000
C478  C     C_3   0.384153 0.006056 0.916662 0.000000
N160  N     N_3   0.354229 0.004992 0.945514 0.000000
C479  C     C_3   0.299310 0.000604 0.924612 0.000000
C480  C     C_R   0.263074 0.007227 0.945840 0.000000
N161  N     N_R   0.284239 0.997451 0.995271 0.000000
C481  C     C_R   0.235002 0.004794 0.998129 0.000000
C482  C     C_R   0.229826 0.996722 0.040890 0.000000
C483  C     C_R   0.175269 0.002254 0.037621 0.000000
C484  C     C_R   0.127093 0.015009 0.992254 0.000000
C485  C     C_R   0.133029 0.022696 0.949633 0.000000
C486  C     C_R   0.187518 0.018527 0.952807 0.000000
N162  N     N_R   0.203910 0.021531 0.917948 0.000000
H531  H     H_    0.427370 0.008223 0.932648 0.000000
H532  H     H_    0.390346 0.977011 0.921345 0.000000
H533  H     H_    0.358358 0.033710 0.874221 0.000000
H534  H     H_    0.346389 0.032953 0.939339 0.000000
H535  H     H_    0.276534 0.021982 0.880895 0.000000
H536  H     H_    0.306179 0.969865 0.935481 0.000000
H537  H     H_    0.267606 0.984984 0.076896 0.000000
H538  H     H_    0.170319 0.995497 0.071184 0.000000
H539  H     H_    0.084815 0.018090 0.990626 0.000000
H540  H     H_    0.095727 0.030330 0.915712 0.000000
C487  C     C_3   0.254719 0.043094 0.093451 0.000000
N163  N     N_3   0.313785 0.039354 0.100642 0.000000
C488  C     C_3   0.311496 0.059014 0.048893 0.000000
C489  C     C_R   0.369970 0.051540 0.053667 0.000000
N164  N     N_R   0.401485 0.078119 0.050205 0.000000
C490  C     C_R   0.440791 0.066618 0.039125 0.000000
C491  C     C_R   0.490866 0.075348 0.040360 0.000000
C492  C     C_R   0.518574 0.065483 0.018897 0.000000
C493  C     C_R   0.496451 0.046232 0.998002 0.000000
C494  C     C_R   0.452840 0.030922 0.006783 0.000000
C495  C     C_R   0.429664 0.038340 0.031941 0.000000
N165  N     N_R   0.388823 0.024904 0.045573 0.000000
H541  H     H_    0.244308 0.057954 0.109495 0.000000
H542  H     H_    0.222881 0.062595 0.050606 0.000000
H543  H     H_    0.250830 0.011652 0.115769 0.000000
H544  H     H_    0.337297 0.007553 0.125199 0.000000
H545  H     H_    0.289033 0.045797 0.030820 0.000000
H546  H     H_    0.288219 0.092772 0.020772 0.000000
H547  H     H_    0.509824 0.088650 0.058409 0.000000
H548  H     H_    0.556969 0.073386 0.017725 0.000000
H549  H     H_    0.516614 0.039944 0.979219 0.000000
H550  H     H_    0.438647 0.012384 0.996092 0.000000
C496  C     C_3   0.437236 0.140590 0.248997 0.000000
N166  N     N_3   0.476715 0.116275 0.246162 0.000000
C497  C     C_3   0.527164 0.088027 0.298062 0.000000
C498  C     C_R   0.567948 0.061454 0.298175 0.000000
N167  N     N_R   0.554982 0.031087 0.294715 0.000000
C499  C     C_R   0.602206 0.015522 0.294827 0.000000
C500  C     C_R   0.614189 0.983867 0.292830 0.000000
C501  C     C_R   0.665710 0.973701 0.292623 0.000000
C502  C     C_R   0.703005 0.996330 0.292172 0.000000
C503  C     C_R   0.689753 0.028776 0.293216 0.000000
C504  C     C_R   0.640416 0.036131 0.297290 0.000000
N168  N     N_R   0.621422 0.064463 0.301715 0.000000
H551  H     H_    0.401231 0.165868 0.208590 0.000000
H552  H     H_    0.417498 0.120751 0.273270 0.000000
H553  H     H_    0.460522 0.153564 0.267437 0.000000
H554  H     H_    0.490297 0.136273 0.218693 0.000000
H555  H     H_    0.548972 0.106012 0.308244 0.000000
H556  H     H_    0.512959 0.067234 0.327403 0.000000
H557  H     H_    0.583937 0.968123 0.289825 0.000000
H558  H     H_    0.676025 0.948797 0.290997 0.000000
H559  H     H_    0.742266 0.988790 0.290542 0.000000
H560  H     H_    0.718354 0.046640 0.292976 0.000000
C505  C     C_3   0.647134 0.979724 0.434806 0.000000
N169  N     N_3   0.592997 0.986342 0.436763 0.000000
C506  C     C_3   0.553967 0.974778 0.409153 0.000000
C507  C     C_R   0.493321 0.986823 0.398683 0.000000
N170  N     N_R   0.470615 0.975878 0.434554 0.000000
C508  C     C_R   0.413308 0.990862 0.401408 0.000000
C509  C     C_R   0.368764 0.991252 0.413872 0.000000
C510  C     C_R   0.312741 0.005203 0.375783 0.000000
C511  C     C_R   0.301919 0.019188 0.325595 0.000000
C512  C     C_R   0.346686 0.020729 0.312666 0.000000
C513  C     C_R   0.402618 0.007600 0.350649 0.000000
N171  N     N_R   0.452752 0.006679 0.346957 0.000000
H561  H     H_    0.656358 0.009450 0.416852 0.000000
H562  H     H_    0.682961 0.955446 0.475734 0.000000
H563  H     H_    0.644954 0.969163 0.411137 0.000000
H564  H     H_    0.574844 0.018211 0.415647 0.000000
H565  H     H_    0.549529 0.992248 0.370120 0.000000
H566  H     H_    0.571337 0.943177 0.423963 0.000000
H567  H     H_    0.375966 0.983124 0.451143 0.000000
H568  H     H_    0.277255 0.005677 0.385040 0.000000
H569  H     H_    0.257903 0.030195 0.295687 0.000000
H570  H     H_    0.335603 0.033460 0.272931 0.000000
C514  C     C_3   0.545156 0.018963 0.164027 0.000000
N172  N     N_3   0.514278 0.052379 0.159923 0.000000
C515  C     C_3   0.471875 0.039050 0.177857 0.000000
C516  C     C_R   0.434930 0.072751 0.170584 0.000000
N173  N     N_R   0.429205 0.066834 0.212075 0.000000
C517  C     C_R   0.383824 0.100001 0.187816 0.000000
C518  C     C_R   0.354376 0.105624 0.210675 0.000000
C519  C     C_R   0.302490 0.137917 0.177848 0.000000
C520  C     C_R   0.283148 0.164723 0.123442 0.000000
C521  C     C_R   0.316606 0.160501 0.101623 0.000000
C522  C     C_R   0.364762 0.125670 0.134403 0.000000
N174  N     N_R   0.395851 0.109065 0.121579 0.000000
H571  H     H_    0.575503 0.028538 0.147058 0.000000
H572  H     H_    0.570484 0.990873 0.206055 0.000000
H573  H     H_    0.514388 0.010574 0.142793 0.000000
H574  H     H_    0.491656 0.079129 0.120235 0.000000
H575  H     H_    0.443780 0.030039 0.155808 0.000000
H576  H     H_    0.495367 0.012080 0.220142 0.000000
H577  H     H_    0.371216 0.085227 0.253100 0.000000
H578  H     H_    0.277023 0.142287 0.194530 0.000000
H579  H     H_    0.241156 0.188859 0.098213 0.000000
H580  H     H_    0.302911 0.182154 0.059628 0.000000
C523  C     C_3   0.594596 0.359622 0.642221 0.000000
N175  N     N_3   0.613251 0.395347 0.628873 0.000000
C524  C     C_3   0.591438 0.415669 0.646256 0.000000
C525  C     C_R   0.614783 0.450118 0.633040 0.000000
N176  N     N_R   0.673545 0.439757 0.662021 0.000000
C526  C     C_R   0.682457 0.474518 0.629804 0.000000
C527  C     C_R   0.732356 0.481843 0.642559 0.000000
C528  C     C_R   0.728883 0.522430 0.618974 0.000000
C529  C     C_R   0.679748 0.553851 0.574245 0.000000
C530  C     C_R   0.631182 0.545001 0.556462 0.000000
C531  C     C_R   0.632512 0.505105 0.586774 0.000000
N177  N     N_R   0.587049 0.491663 0.585399 0.000000
H581  H     H_    0.587933 0.356122 0.611312 0.000000
H582  H     H_    0.628455 0.330877 0.680928 0.000000
H583  H     H_    0.553730 0.364240 0.644007 0.000000
H584  H     H_    0.596020 0.416824 0.587483 0.000000
H585  H     H_    0.544199 0.427250 0.627563 0.000000
H586  H     H_    0.607871 0.393283 0.689901 0.000000
H587  H     H_    0.770353 0.456119 0.675614 0.000000
H588  H     H_    0.762466 0.530272 0.636777 0.000000
H589  H     H_    0.680468 0.585123 0.554276 0.000000
H590  H     H_    0.590960 0.569245 0.526987 0.000000
C532  C     C_3   0.286845 0.612214 0.451520 0.000000
N178  N     N_3   0.320166 0.570066 0.475997 0.000000
C533  C     C_3   0.366243 0.552365 0.528251 0.000000
C534  C     C_R   0.404234 0.510662 0.553999 0.000000
N179  N     N_R   0.445107 0.506942 0.538488 0.000000
C535  C     C_R   0.447491 0.470725 0.546609 0.000000
C536  C     C_R   0.476103 0.453793 0.531982 0.000000
C537  C     C_R   0.468820 0.417823 0.540260 0.000000
C538  C     C_R   0.438230 0.397438 0.567398 0.000000
C539  C     C_R   0.412400 0.413803 0.584423 0.000000
C540  C     C_R   0.414996 0.451862 0.570820 0.000000
N180  N     N_R   0.387396 0.475825 0.577409 0.000000
H591  H     H_    0.315578 0.630700 0.451633 0.000000
H592  H     H_    0.254059 0.627885 0.409884 0.000000
H593  H     H_    0.264908 0.611057 0.474414 0.000000
H594  H     H_    0.338968 0.572428 0.452633 0.000000
H595  H     H_    0.393087 0.572559 0.522989 0.000000
H596  H     H_    0.346467 0.548820 0.553376 0.000000
H597  H     H_    0.502604 0.468392 0.513682 0.000000
H598  H     H_    0.489334 0.404452 0.527697 0.000000
H599  H     H_    0.435205 0.368253 0.575906 0.000000
H600  H     H_    0.390118 0.397223 0.606536 0.000000
C541  C     C_3   0.641776 0.626571 0.588095 0.000000
N181  N     N_3   0.590397 0.631982 0.548439 0.000000
C542  C     C_3   0.564657 0.600573 0.572502 0.000000
C543  C     C_R   0.507881 0.615463 0.528305 0.000000
N182  N     N_R   0.473228 0.656079 0.500062 0.000000
C544  C     C_R   0.428721 0.661586 0.459848 0.000000
C545  C     C_R   0.382340 0.697658 0.417645 0.000000
C546  C     C_R   0.345793 0.698918 0.376141 0.000000
C547  C     C_R   0.355857 0.664392 0.378000 0.000000
C548  C     C_R   0.401502 0.627681 0.422081 0.000000
C549  C     C_R   0.437387 0.626820 0.462969 0.000000
N183  N     N_R   0.486497 0.595445 0.507181 0.000000
H601  H     H_    0.656137 0.653196 0.567936 0.000000
H602  H     H_    0.631309 0.627407 0.615812 0.000000
H603  H     H_    0.676777 0.597938 0.608279 0.000000
H604  H     H_    0.600519 0.630523 0.522772 0.000000
H605  H     H_    0.591297 0.568751 0.593452 0.000000
H606  H     H_    0.558672 0.600364 0.602564 0.000000
H607  H     H_    0.375908 0.724758 0.415774 0.000000
H608  H     H_    0.309646 0.727167 0.341670 0.000000
H609  H     H_    0.327175 0.665940 0.345111 0.000000
H610  H     H_    0.408507 0.600861 0.423778 0.000000
C550  C     C_3   0.949596 0.363162 0.739883 0.000000
N184  N     N_3   0.903085 0.374332 0.691818 0.000000
C551  C     C_3   0.908078 0.402276 0.643598 0.000000
C552  C     C_R   0.896523 0.383732 0.616655 0.000000
N185  N     N_R   0.883137 0.347626 0.639412 0.000000
C553  C     C_R   0.866113 0.344166 0.601168 0.000000
C554  C     C_R   0.829508 0.323607 0.594721 0.000000
C555  C     C_R   0.806065 0.332200 0.546240 0.000000
C556  C     C_R   0.828341 0.353067 0.511183 0.000000
C557  C     C_R   0.868481 0.371193 0.520534 0.000000
C558  C     C_R   0.878868 0.371714 0.561955 0.000000
N186  N     N_R   0.897031 0.398849 0.569049 0.000000
H611  H     H_    0.960847 0.330074 0.773718 0.000000
H612  H     H_    0.987356 0.371087 0.734881 0.000000
H613  H     H_    0.932822 0.378953 0.751590 0.000000
H614  H     H_    0.866638 0.391881 0.685445 0.000000
H615  H     H_    0.873160 0.431921 0.618533 0.000000
H616  H     H_    0.948427 0.409368 0.650339 0.000000
H617  H     H_    0.812683 0.306914 0.622555 0.000000
H618  H     H_    0.768544 0.324466 0.534635 0.000000
H619  H     H_    0.810565 0.358104 0.474382 0.000000
H620  H     H_    0.883600 0.388860 0.491969 0.000000
C559  C     C_3   0.020727 0.354152 0.482796 0.000000
N187  N     N_3   0.058533 0.357356 0.521994 0.000000
C560  C     C_3   0.026513 0.363042 0.546152 0.000000
C561  C     C_R   0.044004 0.392251 0.555803 0.000000
N188  N     N_R   0.101442 0.389022 0.579208 0.000000
C562  C     C_R   0.095173 0.426404 0.568622 0.000000
C563  C     C_R   0.136284 0.443985 0.577679 0.000000
C564  C     C_R   0.118437 0.483409 0.561960 0.000000
C565  C     C_R   0.063553 0.499300 0.551862 0.000000
C566  C     C_R   0.026618 0.476896 0.552545 0.000000
C567  C     C_R   0.038793 0.447377 0.547522 0.000000
N189  N     N_R   0.003818 0.427663 0.537360 0.000000
H621  H     H_    0.047306 0.340491 0.473123 0.000000
H622  H     H_    0.995962 0.333939 0.498879 0.000000
H623  H     H_    0.990199 0.385623 0.445928 0.000000
H624  H     H_    0.068189 0.384556 0.500787 0.000000
H625  H     H_    0.979552 0.377167 0.518515 0.000000
H626  H     H_    0.035262 0.332788 0.583995 0.000000
H627  H     H_    0.181424 0.428721 0.597777 0.000000
H628  H     H_    0.149899 0.498061 0.567034 0.000000
H629  H     H_    0.053012 0.525740 0.550580 0.000000
H630  H     H_    0.992772 0.479464 0.562103 0.000000
C568  C     C_3   0.462241 0.741374 0.618535 0.000000
N190  N     N_3   0.503858 0.737969 0.600617 0.000000
C569  C     C_3   0.533340 0.693908 0.632047 0.000000
C570  C     C_R   0.574189 0.685720 0.615507 0.000000
N191  N     N_R   0.552889 0.699034 0.564131 0.000000
C571  C     C_R   0.594901 0.713275 0.552546 0.000000
C572  C     C_R   0.593789 0.738379 0.503958 0.000000
C573  C     C_R   0.637802 0.754562 0.500423 0.000000
C574  C     C_R   0.682700 0.745277 0.544965 0.000000
C575  C     C_R   0.686880 0.716086 0.594693 0.000000
C576  C     C_R   0.641673 0.701757 0.597210 0.000000
N192  N     N_R   0.632382 0.680731 0.639852 0.000000
H631  H     H_    0.420656 0.766149 0.583621 0.000000
H632  H     H_    0.453608 0.711747 0.640708 0.000000
H633  H     H_    0.479754 0.748672 0.645815 0.000000
H634  H     H_    0.534370 0.750280 0.610566 0.000000
H635  H     H_    0.556948 0.680714 0.673855 0.000000
H636  H     H_    0.500228 0.681694 0.622217 0.000000
H637  H     H_    0.559266 0.747389 0.468773 0.000000
H638  H     H_    0.636394 0.775160 0.462394 0.000000
H639  H     H_    0.715307 0.760037 0.540946 0.000000
H640  H     H_    0.721346 0.708242 0.630194 0.000000
C577  C     C_3   0.266935 0.750767 0.438431 0.000000
N193  N     N_3   0.276704 0.759860 0.475126 0.000000
C578  C     C_3   0.336076 0.759247 0.495429 0.000000
C579  C     C_R   0.374883 0.716483 0.545814 0.000000
N194  N     N_R   0.413315 0.694753 0.542008 0.000000
C580  C     C_R   0.397901 0.660155 0.558497 0.000000
C581  C     C_R   0.422782 0.623908 0.570406 0.000000
C582  C     C_R   0.392755 0.596383 0.579237 0.000000
C583  C     C_R   0.336101 0.608344 0.568598 0.000000
C584  C     C_R   0.317424 0.641050 0.567016 0.000000
C585  C     C_R   0.355303 0.661310 0.571384 0.000000
N195  N     N_R   0.346687 0.692341 0.572772 0.000000
H641  H     H_    0.264833 0.777861 0.400704 0.000000
H642  H     H_    0.301685 0.722423 0.456379 0.000000
H643  H     H_    0.224904 0.745273 0.429048 0.000000
H644  H     H_    0.249935 0.790720 0.451670 0.000000
H645  H     H_    0.349104 0.766916 0.464768 0.000000
H646  H     H_    0.337781 0.782236 0.502646 0.000000
H647  H     H_    0.467352 0.613767 0.582668 0.000000
H648  H     H_    0.413767 0.565509 0.594571 0.000000
H649  H     H_    0.309546 0.589299 0.568791 0.000000
H650  H     H_    0.274421 0.650948 0.561109 0.000000
C586  C     C_3   0.940610 0.333644 0.901513 0.000000
N196  N     N_3   0.886880 0.369136 0.861701 0.000000
C587  C     C_3   0.892480 0.397276 0.813718 0.000000
C588  C     C_R   0.838663 0.433913 0.773039 0.000000
N197  N     N_R   0.785850 0.427280 0.762018 0.000000
C589  C     C_R   0.750308 0.462192 0.744266 0.000000
C590  C     C_R   0.691629 0.472306 0.725323 0.000000
C591  C     C_R   0.661345 0.511251 0.704336 0.000000
C592  C     C_R   0.689580 0.538706 0.701066 0.000000
C593  C     C_R   0.746961 0.529340 0.713793 0.000000
C594  C     C_R   0.778036 0.490149 0.738427 0.000000
N198  N     N_R   0.834884 0.474865 0.754331 0.000000
H651  H     H_    0.948359 0.316951 0.886608 0.000000
H652  H     H_    0.977561 0.344418 0.910522 0.000000
H653  H     H_    0.937229 0.311814 0.938606 0.000000
H654  H     H_    0.882246 0.385021 0.876126 0.000000
H655  H     H_    0.928653 0.407764 0.823467 0.000000
H656  H     H_    0.898601 0.380574 0.798771 0.000000
H657  H     H_    0.669885 0.450453 0.727539 0.000000
H658  H     H_    0.615608 0.521503 0.688231 0.000000
H659  H     H_    0.666107 0.568034 0.687772 0.000000
H660  H     H_    0.765180 0.552542 0.700085 0.000000
C595  C     C_3   0.051368 0.575899 0.704273 0.000000
N199  N     N_3   0.053309 0.543113 0.754750 0.000000
C596  C     C_3   0.032879 0.512180 0.751933 0.000000
C597  C     C_R   0.026383 0.483298 0.799973 0.000000
N200  N     N_R   0.074100 0.451832 0.848227 0.000000
C598  C     C_R   0.049051 0.433615 0.880734 0.000000
C599  C     C_R   0.074320 0.402478 0.935339 0.000000
C600  C     C_R   0.038894 0.388373 0.959122 0.000000
C601  C     C_R   0.979092 0.405243 0.928986 0.000000
C602  C     C_R   0.954023 0.437483 0.874778 0.000000
C603  C     C_R   0.989879 0.451852 0.852050 0.000000
N201  N     N_R   0.973446 0.484136 0.800710 0.000000
H661  H     H_    0.066282 0.599944 0.705701 0.000000
H662  H     H_    0.076091 0.562967 0.693542 0.000000
H663  H     H_    0.008636 0.589954 0.671732 0.000000
H664  H     H_    0.026164 0.556291 0.762024 0.000000
H665  H     H_    0.991898 0.526652 0.716444 0.000000
H666  H     H_    0.063961 0.494166 0.750363 0.000000
H667  H     H_    0.119684 0.391081 0.960912 0.000000
H668  H     H_    0.058191 0.364294 0.001917 0.000000
H669  H     H_    0.951995 0.393829 0.948124 0.000000
H670  H     H_    0.907435 0.451657 0.851210 0.000000
C604  C     C_3   0.788463 0.679222 0.584846 0.000000
N202  N     N_3   0.808727 0.653839 0.641987 0.000000
C605  C     C_3   0.779030 0.623592 0.658067 0.000000
C606  C     C_R   0.800700 0.596866 0.716639 0.000000
N203  N     N_R   0.847536 0.559770 0.752575 0.000000
C607  C     C_R   0.854257 0.548792 0.799618 0.000000
C608  C     C_R   0.902479 0.521754 0.848409 0.000000
C609  C     C_R   0.901199 0.515959 0.891776 0.000000
C610  C     C_R   0.853043 0.538676 0.885253 0.000000
C611  C     C_R   0.806986 0.568800 0.834895 0.000000
C612  C     C_R   0.809340 0.573963 0.792336 0.000000
N204  N     N_R   0.773725 0.605200 0.739865 0.000000
H671  H     H_    0.796256 0.709369 0.569425 0.000000
H672  H     H_    0.811662 0.663164 0.576165 0.000000
H673  H     H_    0.742679 0.683542 0.564352 0.000000
H674  H     H_    0.803284 0.672217 0.652903 0.000000
H675  H     H_    0.732428 0.639047 0.639168 0.000000
H676  H     H_    0.786781 0.604604 0.646101 0.000000
H677  H     H_    0.942349 0.508853 0.852050 0.000000
H678  H     H_    0.938844 0.494779 0.930619 0.000000
H679  H     H_    0.852994 0.534653 0.919176 0.000000
H680  H     H_    0.772600 0.589324 0.829401 0.000000
C613  C     C_3   0.360258 0.386894 0.771809 0.000000
N205  N     N_3   0.325721 0.422664 0.715598 0.000000
C614  C     C_3   0.302488 0.458391 0.710801 0.000000
C615  C     C_R   0.269786 0.495146 0.652675 0.000000
N206  N     N_R   0.221528 0.530289 0.627413 0.000000
C616  C     C_R   0.206904 0.549012 0.575748 0.000000
C617  C     C_R   0.160420 0.583605 0.531666 0.000000
C618  C     C_R   0.148318 0.595857 0.481883 0.000000
C619  C     C_R   0.183901 0.573549 0.476925 0.000000
C620  C     C_R   0.232506 0.539709 0.521665 0.000000
C621  C     C_R   0.242903 0.527808 0.570512 0.000000
N207  N     N_R   0.284497 0.493814 0.618167 0.000000
H681  H     H_    0.355457 0.358173 0.778565 0.000000
H682  H     H_    0.406113 0.382229 0.785413 0.000000
H683  H     H_    0.348892 0.390977 0.796773 0.000000
H684  H     H_    0.290588 0.415878 0.699376 0.000000
H685  H     H_    0.275834 0.450117 0.730548 0.000000
H686  H     H_    0.338011 0.464075 0.732198 0.000000
H687  H     H_    0.133508 0.599978 0.536048 0.000000
H688  H     H_    0.110893 0.622858 0.446779 0.000000
H689  H     H_    0.174692 0.583359 0.437906 0.000000
H690  H     H_    0.261960 0.523662 0.518167 0.000000
C622  C     C_3   0.325045 0.516370 0.761035 0.000000
N208  N     N_3   0.294817 0.537370 0.704751 0.000000
C623  C     C_3   0.304450 0.576537 0.671475 0.000000
C624  C     C_R   0.255009 0.614969 0.643261 0.000000
N209  N     N_R   0.198721 0.614877 0.628738 0.000000
C625  C     C_R   0.170134 0.651806 0.613549 0.000000
C626  C     C_R   0.115221 0.663929 0.606505 0.000000
C627  C     C_R   0.096641 0.700375 0.598539 0.000000
C628  C     C_R   0.133868 0.722560 0.600807 0.000000
C629  C     C_R   0.190131 0.708628 0.611007 0.000000
C630  C     C_R   0.206961 0.673713 0.615933 0.000000
N210  N     N_R   0.261183 0.652507 0.632132 0.000000
H691  H     H_    0.299102 0.529957 0.770827 0.000000
H692  H     H_    0.328727 0.482967 0.783526 0.000000
H693  H     H_    0.368501 0.518394 0.771918 0.000000
H694  H     H_    0.252142 0.542538 0.695805 0.000000
H695  H     H_    0.345595 0.577572 0.693350 0.000000
H696  H     H_    0.306672 0.576297 0.640680 0.000000
H697  H     H_    0.088113 0.644803 0.609357 0.000000
H698  H     H_    0.053634 0.710682 0.592775 0.000000
H699  H     H_    0.119605 0.749922 0.596925 0.000000
H700  H     H_    0.220584 0.723326 0.618221 0.000000
C631  C     C_3   0.142140 0.463937 0.669630 0.000000
N211  N     N_3   0.139954 0.454832 0.716232 0.000000
C632  C     C_3   0.185534 0.465740 0.738488 0.000000
C633  C     C_R   0.167868 0.493587 0.747237 0.000000
N212  N     N_R   0.174204 0.531812 0.717651 0.000000
C634  C     C_R   0.183386 0.541988 0.750203 0.000000
C635  C     C_R   0.192035 0.577417 0.742159 0.000000
C636  C     C_R   0.191564 0.583754 0.777485 0.000000
C637  C     C_R   0.183916 0.554467 0.820858 0.000000
C638  C     C_R   0.178815 0.517831 0.830367 0.000000
C639  C     C_R   0.179145 0.512202 0.794802 0.000000
N213  N     N_R   0.169308 0.480590 0.794859 0.000000
H701  H     H_    0.129856 0.498102 0.638293 0.000000
H702  H     H_    0.185780 0.447791 0.679869 0.000000
H703  H     H_    0.111271 0.452376 0.654290 0.000000
H704  H     H_    0.151925 0.422628 0.743646 0.000000
H705  H     H_    0.219790 0.438397 0.775908 0.000000
H706  H     H_    0.199264 0.485339 0.708468 0.000000
H707  H     H_    0.200191 0.599623 0.710525 0.000000
H708  H     H_    0.197072 0.611903 0.771054 0.000000
H709  H     H_    0.181557 0.560427 0.847127 0.000000
H710  H     H_    0.170499 0.495863 0.862475 0.000000
C640  C     C_3   0.386343 0.221745 0.518504 0.000000
N214  N     N_3   0.412099 0.179785 0.538049 0.000000
C641  C     C_3   0.365183 0.165584 0.522972 0.000000
C642  C     C_R   0.387446 0.121397 0.545121 0.000000
N215  N     N_R   0.430240 0.105416 0.539109 0.000000
C643  C     C_R   0.435629 0.064758 0.569534 0.000000
C644  C     C_R   0.486877 0.034219 0.599212 0.000000
C645  C     C_R   0.495818 0.995368 0.643087 0.000000
C646  C     C_R   0.451332 0.986076 0.654852 0.000000
C647  C     C_R   0.401344 0.018027 0.627775 0.000000
C648  C     C_R   0.396809 0.057278 0.588219 0.000000
N216  N     N_R   0.369020 0.091212 0.577959 0.000000
H711  H     H_    0.421252 0.234219 0.527072 0.000000
H712  H     H_    0.357598 0.242606 0.474829 0.000000
H713  H     H_    0.360974 0.220823 0.538993 0.000000
H714  H     H_    0.432993 0.161013 0.579469 0.000000
H715  H     H_    0.336327 0.167017 0.539424 0.000000
H716  H     H_    0.339427 0.185851 0.478981 0.000000
H717  H     H_    0.521952 0.043370 0.593906 0.000000
H718  H     H_    0.538964 0.973379 0.670820 0.000000
H719  H     H_    0.457963 0.955569 0.688951 0.000000
H720  H     H_    0.370423 0.012797 0.641924 0.000000
C649  C     C_3   0.183343 0.221703 0.452476 0.000000
N217  N     N_3   0.227403 0.194685 0.508020 0.000000
C650  C     C_3   0.200901 0.170439 0.540988 0.000000
C651  C     C_R   0.242205 0.148131 0.598413 0.000000
N218  N     N_R   0.297644 0.125733 0.617342 0.000000
C652  C     C_R   0.329149 0.138931 0.641916 0.000000
C653  C     C_R   0.386918 0.132822 0.658214 0.000000
C654  C     C_R   0.411128 0.152503 0.677825 0.000000
C655  C     C_R   0.376190 0.179190 0.678045 0.000000
C656  C     C_R   0.317259 0.185694 0.659850 0.000000
C657  C     C_R   0.294627 0.163279 0.644277 0.000000
N219  N     N_R   0.238561 0.166170 0.621571 0.000000
H721  H     H_    0.204080 0.237439 0.426585 0.000000
H722  H     H_    0.162201 0.202853 0.443060 0.000000
H723  H     H_    0.150432 0.245858 0.444747 0.000000
H724  H     H_    0.241271 0.213766 0.517175 0.000000
H725  H     H_    0.160403 0.191731 0.528978 0.000000
H726  H     H_    0.191455 0.147416 0.534998 0.000000
H727  H     H_    0.411135 0.115373 0.652266 0.000000
H728  H     H_    0.456659 0.148792 0.690473 0.000000
H729  H     H_    0.394745 0.196333 0.690661 0.000000
H730  H     H_    0.290651 0.209686 0.655464 0.000000
C658  C     C_3   0.374748 0.944512 0.777238 0.000000
N220  N     N_3   0.347366 0.973463 0.719862 0.000000
C659  C     C_3   0.286062 0.979860 0.700167 0.000000
C660  C     C_R   0.258648 0.009351 0.641487 0.000000
N221  N     N_R   0.272889 0.045109 0.613600 0.000000
C661  C     C_R   0.240046 0.060735 0.562883 0.000000
C662  C     C_R   0.236054 0.096786 0.517577 0.000000
C663  C     C_R   0.198334 0.108057 0.468796 0.000000
C664  C     C_R   0.165581 0.083469 0.466272 0.000000
C665  C     C_R   0.170338 0.047254 0.512447 0.000000
C666  C     C_R   0.208466 0.035980 0.560604 0.000000
N222  N     N_R   0.219244 0.002342 0.609981 0.000000
H731  H     H_    0.421374 0.938638 0.793423 0.000000
H732  H     H_    0.359195 0.959103 0.791186 0.000000
H733  H     H_    0.366259 0.914878 0.791167 0.000000
H734  H     H_    0.363880 0.959603 0.707279 0.000000
H735  H     H_    0.278605 0.949858 0.713654 0.000000
H736  H     H_    0.267402 0.993442 0.714351 0.000000
H737  H     H_    0.260077 0.116581 0.519449 0.000000
H738  H     H_    0.193829 0.136454 0.432389 0.000000
H739  H     H_    0.135895 0.092770 0.427874 0.000000
H740  H     H_    0.144966 0.028585 0.510380 0.000000
C667  C     C_3   0.661788 0.953336 0.698433 0.000000
N223  N     N_3   0.632909 0.995265 0.649845 0.000000
C668  C     C_3   0.622526 0.018296 0.667432 0.000000
C669  C     C_R   0.618205 0.061753 0.631934 0.000000
N224  N     N_R   0.654670 0.073864 0.656841 0.000000
C670  C     C_R   0.625516 0.115170 0.624843 0.000000
C671  C     C_R   0.632880 0.141642 0.636940 0.000000
C672  C     C_R   0.594899 0.182419 0.599927 0.000000
C673  C     C_R   0.548622 0.195269 0.553291 0.000000
C674  C     C_R   0.539245 0.167161 0.543955 0.000000
C675  C     C_R   0.578207 0.127379 0.580072 0.000000
N225  N     N_R   0.571771 0.094505 0.581727 0.000000
H741  H     H_    0.648092 0.932362 0.690468 0.000000
H742  H     H_    0.709012 0.946837 0.715527 0.000000
H743  H     H_    0.646956 0.949903 0.726322 0.000000
H744  H     H_    0.594727 0.994482 0.628215 0.000000
H745  H     H_    0.585767 0.015780 0.676183 0.000000
H746  H     H_    0.661443 0.005677 0.704747 0.000000
H747  H     H_    0.666949 0.131239 0.674206 0.000000
H748  H     H_    0.600553 0.204122 0.607981 0.000000
H749  H     H_    0.518337 0.226917 0.525197 0.000000
H750  H     H_    0.500964 0.175516 0.510874 0.000000
C676  C     C_3   0.715334 0.152014 0.570075 0.000000
N226  N     N_3   0.735957 0.118785 0.627119 0.000000
C677  C     C_3   0.761446 0.135425 0.652808 0.000000
C678  C     C_R   0.791957 0.103943 0.711534 0.000000
N227  N     N_R   0.773001 0.072696 0.743211 0.000000
C679  C     C_R   0.800043 0.066234 0.789887 0.000000
C680  C     C_R   0.798156 0.038771 0.837038 0.000000
C681  C     C_R   0.832523 0.035951 0.880614 0.000000
C682  C     C_R   0.868821 0.059636 0.877121 0.000000
C683  C     C_R   0.870471 0.087114 0.829576 0.000000
C684  C     C_R   0.834351 0.090624 0.786433 0.000000
N228  N     N_R   0.832044 0.113562 0.738092 0.000000
H751  H     H_    0.680030 0.147364 0.546428 0.000000
H752  H     H_    0.697462 0.183018 0.558569 0.000000
H753  H     H_    0.751433 0.152009 0.560118 0.000000
H754  H     H_    0.771035 0.094746 0.641457 0.000000
H755  H     H_    0.794009 0.145728 0.640697 0.000000
H756  H     H_    0.729176 0.162406 0.640580 0.000000
H757  H     H_    0.770960 0.019796 0.840835 0.000000
H758  H     H_    0.831694 0.014572 0.918058 0.000000
H759  H     H_    0.896132 0.056406 0.911845 0.000000
H760  H     H_    0.899170 0.105234 0.826457 0.000000
C685  C     C_3   0.706288 0.060186 0.590015 0.000000
N229  N     N_3   0.725314 0.018271 0.639113 0.000000
C686  C     C_3   0.787714 0.003339 0.667225 0.000000
C687  C     C_R   0.806965 0.973520 0.723680 0.000000
N230  N     N_R   0.790372 0.984142 0.750620 0.000000
C688  C     C_R   0.830045 0.951948 0.801326 0.000000
C689  C     C_R   0.842277 0.948696 0.845645 0.000000
C690  C     C_R   0.886479 0.913681 0.894117 0.000000
C691  C     C_R   0.914738 0.881641 0.897665 0.000000
C692  C     C_R   0.903018 0.885990 0.852093 0.000000
C693  C     C_R   0.863704 0.922865 0.804147 0.000000
N231  N     N_R   0.852141 0.935909 0.755281 0.000000
H761  H     H_    0.662176 0.078453 0.573866 0.000000
H762  H     H_    0.730679 0.077707 0.596648 0.000000
H763  H     H_    0.710945 0.059134 0.560609 0.000000
H764  H     H_    0.715059 0.999493 0.628502 0.000000
H765  H     H_    0.805462 0.987307 0.655315 0.000000
H766  H     H_    0.805306 0.028121 0.662744 0.000000
H767  H     H_    0.817881 0.972382 0.842869 0.000000
H768  H     H_    0.896480 0.910044 0.929928 0.000000
H769  H     H_    0.945536 0.853112 0.936341 0.000000
H770  H     H_    0.924729 0.861744 0.853773 0.000000
C694  C     C_3   0.251458 0.777763 0.832882 0.000000
N232  N     N_3   0.215247 0.819468 0.783017 0.000000
C695  C     C_3   0.244967 0.849144 0.778413 0.000000
C696  C     C_R   0.202506 0.889329 0.753623 0.000000
N233  N     N_R   0.184800 0.925758 0.701985 0.000000
C697  C     C_R   0.154242 0.953449 0.701260 0.000000
C698  C     C_R   0.133089 0.995684 0.663407 0.000000
C699  C     C_R   0.110379 0.017402 0.675819 0.000000
C700  C     C_R   0.102218 0.997515 0.720500 0.000000
C701  C     C_R   0.115845 0.955498 0.753228 0.000000
C702  C     C_R   0.148645 0.934646 0.746137 0.000000
N234  N     N_R   0.180510 0.894554 0.781927 0.000000
H771  H     H_    0.227343 0.755790 0.836848 0.000000
H772  H     H_    0.291078 0.767415 0.832333 0.000000
H773  H     H_    0.262998 0.777270 0.867509 0.000000
H774  H     H_    0.177249 0.828344 0.783251 0.000000
H775  H     H_    0.277413 0.837402 0.818060 0.000000
H776  H     H_    0.266762 0.854330 0.753795 0.000000
H777  H     H_    0.136521 0.011485 0.627121 0.000000
H778  H     H_    0.096390 0.050429 0.650300 0.000000
H779  H     H_    0.082307 0.015531 0.728211 0.000000
H780  H     H_    0.103912 0.940321 0.784700 0.000000
C703  C     C_3   0.313215 0.983439 0.832392 0.000000
N235  N     N_3   0.283247 0.954991 0.854260 0.000000
C704  C     C_3   0.222877 0.974524 0.815505 0.000000
C705  C     C_R   0.188664 0.957838 0.844045 0.000000
N236  N     N_R   0.181784 0.918680 0.865150 0.000000
C706  C     C_R   0.174974 0.909629 0.906776 0.000000
C707  C     C_R   0.175587 0.871898 0.947378 0.000000
C708  C     C_R   0.167894 0.869275 0.986827 0.000000
C709  C     C_R   0.155995 0.904596 0.982819 0.000000
C710  C     C_R   0.156861 0.941824 0.942011 0.000000
C711  C     C_R   0.170715 0.942850 0.906577 0.000000
N237  N     N_R   0.177781 0.974982 0.866265 0.000000
H781  H     H_    0.360534 0.966210 0.855716 0.000000
H782  H     H_    0.297788 0.997204 0.790284 0.000000
H783  H     H_    0.303897 0.008752 0.834359 0.000000
H784  H     H_    0.285341 0.952085 0.886655 0.000000
H785  H     H_    0.211163 0.007020 0.799428 0.000000
H786  H     H_    0.215654 0.970980 0.784705 0.000000
H787  H     H_    0.181850 0.845099 0.948680 0.000000
H788  H     H_    0.169545 0.839948 0.020231 0.000000
H789  H     H_    0.147074 0.902849 0.012300 0.000000
H790  H     H_    0.146442 0.969042 0.938018 0.000000
C712  C     C_3   0.063177 0.830393 0.958447 0.000000
N238  N     N_3   0.053996 0.836761 0.910143 0.000000
C713  C     C_3   0.038342 0.881101 0.866250 0.000000
C714  C     C_R   0.038578 0.884786 0.820824 0.000000
N239  N     N_R   0.093605 0.865599 0.833084 0.000000
C715  C     C_R   0.085422 0.836241 0.827971 0.000000
C716  C     C_R   0.128086 0.802400 0.847247 0.000000
C717  C     C_R   0.112540 0.769628 0.851273 0.000000
C718  C     C_R   0.055891 0.770322 0.840090 0.000000
C719  C     C_R   0.013873 0.804968 0.821241 0.000000
C720  C     C_R   0.028265 0.839728 0.809660 0.000000
N240  N     N_R   0.995440 0.873938 0.797533 0.000000
H791  H     H_    0.038946 0.810248 0.976367 0.000000
H792  H     H_    0.109730 0.813408 0.987639 0.000000
H793  H     H_    0.048571 0.860695 0.949736 0.000000
H794  H     H_    0.020151 0.826273 0.900609 0.000000
H795  H     H_    0.995738 0.899367 0.854537 0.000000
H796  H     H_    0.071542 0.892810 0.878953 0.000000
H797  H     H_    0.172734 0.800621 0.861580 0.000000
H798  H     H_    0.145384 0.742040 0.867276 0.000000
H799  H     H_    0.045003 0.742990 0.848177 0.000000
H800  H     H_    0.972426 0.803262 0.819826 0.000000
C721  C     C_3   0.555922 0.787648 0.686422 0.000000
N241  N     N_3   0.516817 0.781896 0.709135 0.000000
C722  C     C_3   0.507245 0.815198 0.711478 0.000000
C723  C     C_R   0.472094 0.808551 0.737944 0.000000
N242  N     N_R   0.417826 0.806729 0.717134 0.000000
C724  C     C_R   0.409393 0.785264 0.760308 0.000000
C725  C     C_R   0.366851 0.768151 0.765214 0.000000
C726  C     C_R   0.373733 0.738184 0.815700 0.000000
C727  C     C_R   0.420615 0.728623 0.859457 0.000000
C728  C     C_R   0.459182 0.750349 0.852994 0.000000
C729  C     C_R   0.454895 0.776599 0.803431 0.000000
N243  N     N_R   0.495711 0.791892 0.790759 0.000000
H801  H     H_    0.558120 0.765749 0.677852 0.000000
H802  H     H_    0.540100 0.820263 0.649527 0.000000
H803  H     H_    0.599581 0.781349 0.714406 0.000000
H804  H     H_    0.538802 0.755131 0.748585 0.000000
H805  H     H_    0.548701 0.815511 0.733900 0.000000
H806  H     H_    0.482109 0.843832 0.671269 0.000000
H807  H     H_    0.333601 0.773324 0.731843 0.000000
H808  H     H_    0.343092 0.721667 0.821130 0.000000
H809  H     H_    0.425438 0.705628 0.898767 0.000000
H810  H     H_    0.492906 0.745604 0.886183 0.000000
C730  C     C_3   0.704054 0.644498 0.894154 0.000000
N244  N     N_3   0.698355 0.685546 0.880250 0.000000
C731  C     C_3   0.677080 0.716268 0.822956 0.000000
C732  C     C_R   0.671199 0.758553 0.808023 0.000000
N245  N     N_R   0.637686 0.776340 0.819299 0.000000
C733  C     C_R   0.655045 0.808618 0.807982 0.000000
C734  C     C_R   0.622335 0.845211 0.788874 0.000000
C735  C     C_R   0.650008 0.872153 0.787554 0.000000
C736  C     C_R   0.708316 0.862130 0.800219 0.000000
C737  C     C_R   0.733010 0.830418 0.802026 0.000000
C738  C     C_R   0.699694 0.807773 0.798190 0.000000
N246  N     N_R   0.706752 0.780353 0.790235 0.000000
H811  H     H_    0.732828 0.637588 0.880540 0.000000
H812  H     H_    0.723131 0.620452 0.938126 0.000000
H813  H     H_    0.660786 0.643409 0.875419 0.000000
H814  H     H_    0.739813 0.685206 0.898906 0.000000
H815  H     H_    0.708575 0.708554 0.812434 0.000000
H816  H     H_    0.635223 0.715473 0.801445 0.000000
H817  H     H_    0.576636 0.852097 0.775235 0.000000
H818  H     H_    0.624675 0.899838 0.777296 0.000000
H819  H     H_    0.732335 0.881595 0.802478 0.000000
H820  H     H_    0.777031 0.821976 0.809291 0.000000
C739  C     C_3   0.715756 0.719780 0.047297 0.000000
N247  N     N_3   0.685961 0.715924 0.006557 0.000000
C740  C     C_3   0.627876 0.715778 0.999859 0.000000
C741  C     C_R   0.605625 0.701065 0.969039 0.000000
N248  N     N_R   0.599970 0.720816 0.918355 0.000000
C742  C     C_R   0.586362 0.694247 0.909667 0.000000
C743  C     C_R   0.569119 0.703112 0.861759 0.000000
C744  C     C_R   0.531577 0.685405 0.848914 0.000000
C745  C     C_R   0.514997 0.657527 0.885511 0.000000
C746  C     C_R   0.536502 0.646600 0.935566 0.000000
C747  C     C_R   0.575316 0.663982 0.948327 0.000000
N249  N     N_R   0.590260 0.665391 0.988962 0.000000
H821  H     H_    0.695346 0.751673 0.032107 0.000000
H822  H     H_    0.714403 0.696204 0.084487 0.000000
H823  H     H_    0.761953 0.714618 0.056395 0.000000
H824  H     H_    0.710034 0.689062 0.016089 0.000000
H825  H     H_    0.628452 0.694115 0.038753 0.000000
H826  H     H_    0.599416 0.747568 0.978342 0.000000
H827  H     H_    0.577075 0.728262 0.832030 0.000000
H828  H     H_    0.508583 0.698638 0.807818 0.000000
H829  H     H_    0.479447 0.648873 0.872266 0.000000
H830  H     H_    0.514056 0.632238 0.958258 0.000000
C748  C     C_3   0.746102 0.194151 0.746578 0.000000
N250  N     N_3   0.783455 0.205245 0.721252 0.000000
C749  C     C_3   0.834524 0.206682 0.754341 0.000000
C750  C     C_R   0.876281 0.213179 0.732427 0.000000
N251  N     N_R   0.895011 0.188304 0.721558 0.000000
C751  C     C_R   0.928857 0.206665 0.700601 0.000000
C752  C     C_R   0.963779 0.193828 0.686389 0.000000
C753  C     C_R   0.999552 0.215648 0.670520 0.000000
C754  C     C_R   0.997352 0.250769 0.666869 0.000000
C755  C     C_R   0.964936 0.260246 0.684663 0.000000
C756  C     C_R   0.931415 0.238691 0.700581 0.000000
N252  N     N_R   0.899432 0.245041 0.720010 0.000000
H831  H     H_    0.705231 0.195531 0.720127 0.000000
H832  H     H_    0.767921 0.161876 0.785156 0.000000
H833  H     H_    0.735782 0.216466 0.753411 0.000000
H834  H     H_    0.761105 0.235453 0.684798 0.000000
H835  H     H_    0.821964 0.232974 0.754210 0.000000
H836  H     H_    0.855400 0.176798 0.795780 0.000000
H837  H     H_    0.969757 0.164825 0.693683 0.000000
H838  H     H_    0.029845 0.204455 0.662551 0.000000
H839  H     H_    0.022145 0.270189 0.652976 0.000000
H840  H     H_    0.964108 0.283823 0.686942 0.000000
C757  C     C_3   0.017743 0.184052 0.839018 0.000000
N253  N     N_3   0.999272 0.212563 0.847122 0.000000
C758  C     C_3   0.045276 0.228014 0.859398 0.000000
C759  C     C_R   0.044440 0.264900 0.810517 0.000000
N254  N     N_R   0.000455 0.285729 0.758698 0.000000
C760  C     C_R   0.025839 0.310908 0.730298 0.000000
C761  C     C_R   0.013731 0.334701 0.677618 0.000000
C762  C     C_R   0.030376 0.368903 0.657827 0.000000
C763  C     C_R   0.064268 0.375988 0.690109 0.000000
C764  C     C_R   0.090980 0.344095 0.743517 0.000000
C765  C     C_R   0.073434 0.310439 0.762085 0.000000
N255  N     N_R   0.091084 0.279628 0.812977 0.000000
H841  H     H_    0.982182 0.172294 0.829762 0.000000
H842  H     H_    0.027985 0.200538 0.805240 0.000000
H843  H     H_    0.055529 0.156922 0.876439 0.000000
H844  H     H_    0.995673 0.193922 0.882220 0.000000
H845  H     H_    0.039454 0.237298 0.882589 0.000000
H846  H     H_    0.087440 0.202887 0.883062 0.000000
H847  H     H_    0.987834 0.332391 0.648242 0.000000
H848  H     H_    0.005837 0.394125 0.617112 0.000000
H849  H     H_    0.071608 0.405264 0.673078 0.000000
H850  H     H_    0.124573 0.345737 0.769967 0.000000
C766  C     C_3   0.136504 0.216045 0.748438 0.000000
N256  N     N_3   0.154406 0.216674 0.712454 0.000000
C767  C     C_3   0.128629 0.257987 0.660896 0.000000
C768  C     C_R   0.163444 0.264339 0.633062 0.000000
N257  N     N_R   0.167982 0.243627 0.612876 0.000000
C769  C     C_R   0.188556 0.267521 0.579016 0.000000
C770  C     C_R   0.197365 0.263796 0.544455 0.000000
C771  C     C_R   0.223604 0.289297 0.516233 0.000000
C772  C     C_R   0.241181 0.317199 0.523812 0.000000
C773  C     C_R   0.229664 0.321657 0.557241 0.000000
C774  C     C_R   0.200541 0.297880 0.582468 0.000000
N258  N     N_R   0.183332 0.298034 0.615145 0.000000
H851  H     H_    0.099989 0.204105 0.748217 0.000000
H852  H     H_    0.172564 0.193657 0.789355 0.000000
H853  H     H_    0.123721 0.247067 0.738222 0.000000
H854  H     H_    0.134345 0.198482 0.704960 0.000000
H855  H     H_    0.086702 0.260580 0.635094 0.000000
H856  H     H_    0.123987 0.283170 0.664018 0.000000
H857  H     H_    0.182958 0.242434 0.538461 0.000000
H858  H     H_    0.231599 0.286872 0.488993 0.000000
H859  H     H_    0.263848 0.335736 0.503269 0.000000
H860  H     H_    0.246050 0.341508 0.565125 0.000000
C775  C     C_3   0.256850 0.360224 0.788871 0.000000
N259  N     N_3   0.255221 0.354713 0.750892 0.000000
C776  C     C_3   0.195471 0.363278 0.719166 0.000000
C777  C     C_R   0.188442 0.323435 0.733661 0.000000
N260  N     N_R   0.200090 0.311617 0.706681 0.000000
C778  C     C_R   0.227727 0.270661 0.744976 0.000000
C779  C     C_R   0.267906 0.246926 0.746008 0.000000
C780  C     C_R   0.304301 0.208949 0.794788 0.000000
C781  C     C_R   0.291292 0.191920 0.836903 0.000000
C782  C     C_R   0.247834 0.215903 0.833327 0.000000
C783  C     C_R   0.223907 0.257437 0.790018 0.000000
N261  N     N_R   0.198755 0.290184 0.785194 0.000000
H861  H     H_    0.227757 0.346536 0.805557 0.000000
H862  H     H_    0.301390 0.345018 0.821228 0.000000
H863  H     H_    0.245522 0.393400 0.769038 0.000000
H864  H     H_    0.277682 0.323304 0.772604 0.000000
H865  H     H_    0.167580 0.380193 0.723829 0.000000
H866  H     H_    0.186148 0.383036 0.677393 0.000000
H867  H     H_    0.276850 0.259999 0.712551 0.000000
H868  H     H_    0.343121 0.192810 0.799943 0.000000
H869  H     H_    0.317544 0.160890 0.874075 0.000000
H870  H     H_    0.236245 0.202280 0.864828 0.000000
C784  C     C_3   0.932787 0.280993 0.547142 0.000000
N262  N     N_3   0.955670 0.244533 0.553323 0.000000
C785  C     C_3   0.012617 0.241746 0.555713 0.000000
C786  C     C_R   0.034127 0.204700 0.560929 0.000000
N263  N     N_R   0.092212 0.184148 0.582192 0.000000
C787  C     C_R   0.088764 0.155113 0.574447 0.000000
C788  C     C_R   0.130237 0.123768 0.586868 0.000000
C789  C     C_R   0.114203 0.101918 0.568543 0.000000
C790  C     C_R   0.058628 0.101584 0.553391 0.000000
C791  C     C_R   0.022054 0.123949 0.556914 0.000000
C792  C     C_R   0.033646 0.156493 0.554798 0.000000
N264  N     N_R   0.997142 0.187785 0.544236 0.000000
H871  H     H_    0.907951 0.273454 0.569830 0.000000
H872  H     H_    0.967982 0.291061 0.561278 0.000000
H873  H     H_    0.902333 0.306417 0.504865 0.000000
H874  H     H_    0.927820 0.250406 0.518239 0.000000
H875  H     H_    0.009441 0.270010 0.518522 0.000000
H876  H     H_    0.043671 0.238112 0.590398 0.000000
H877  H     H_    0.174588 0.114452 0.610347 0.000000
H878  H     H_    0.146889 0.079607 0.575250 0.000000
H879  H     H_    0.048005 0.078312 0.549514 0.000000
H880  H     H_    0.987657 0.114160 0.564783 0.000000
C793  C     C_3   0.055848 0.883749 0.693319 0.000000
N265  N     N_3   0.067906 0.913620 0.650288 0.000000
C794  C     C_3   0.034369 0.954836 0.626773 0.000000
C795  C     C_R   0.039065 0.987407 0.578611 0.000000
N266  N     N_R   0.088454 0.979564 0.574294 0.000000
C796  C     C_R   0.064782 0.992653 0.524036 0.000000
C797  C     C_R   0.091178 0.981665 0.503465 0.000000
C798  C     C_R   0.058888 0.994215 0.452850 0.000000
C799  C     C_R   0.999777 0.015946 0.424841 0.000000
C800  C     C_R   0.972534 0.023995 0.448031 0.000000
C801  C     C_R   0.006248 0.011911 0.497952 0.000000
N267  N     N_R   0.988378 0.011213 0.530584 0.000000
H881  H     H_    0.080629 0.851498 0.712148 0.000000
H882  H     H_    0.068825 0.888404 0.723589 0.000000
H883  H     H_    0.009029 0.887959 0.677422 0.000000
H884  H     H_    0.051928 0.909783 0.621294 0.000000
H885  H     H_    0.989657 0.955672 0.611951 0.000000
H886  H     H_    0.045852 0.959798 0.656540 0.000000
H887  H     H_    0.135274 0.962142 0.528232 0.000000
H888  H     H_    0.079357 0.986067 0.435649 0.000000
H889  H     H_    0.974488 0.025026 0.385685 0.000000
H890  H     H_    0.926177 0.038637 0.427494 0.000000
C802  C     C_3   0.217680 0.966339 0.462877 0.000000
N268  N     N_3   0.204465 0.946658 0.507430 0.000000
C803  C     C_3   0.247054 0.945554 0.549288 0.000000
C804  C     C_R   0.257301 0.908167 0.603794 0.000000
N269  N     N_R   0.221767 0.910540 0.624849 0.000000
C805  C     C_R   0.215189 0.872767 0.647686 0.000000
C806  C     C_R   0.178812 0.859361 0.669129 0.000000
C807  C     C_R   0.171321 0.821932 0.683213 0.000000
C808  C     C_R   0.199745 0.799177 0.674298 0.000000
C809  C     C_R   0.237798 0.812826 0.653777 0.000000
C810  C     C_R   0.247285 0.848615 0.643765 0.000000
N270  N     N_R   0.280015 0.868112 0.621677 0.000000
H891  H     H_    0.181405 0.972270 0.428311 0.000000
H892  H     H_    0.222790 0.996627 0.451424 0.000000
H893  H     H_    0.257882 0.945397 0.473701 0.000000
H894  H     H_    0.206731 0.916339 0.521579 0.000000
H895  H     H_    0.285877 0.944962 0.544282 0.000000
H896  H     H_    0.231834 0.974498 0.543054 0.000000
H897  H     H_    0.158898 0.877020 0.676504 0.000000
H898  H     H_    0.142612 0.810717 0.700449 0.000000
H899  H     H_    0.192481 0.770583 0.683729 0.000000
H900  H     H_    0.259024 0.795687 0.645965 0.000000
C811  C     C_3   0.890078 0.085853 0.666119 0.000000
N271  N     N_3   0.938844 0.089354 0.654566 0.000000
C812  C     C_3   0.958457 0.121848 0.652294 0.000000
C813  C     C_R   0.907531 0.159177 0.619993 0.000000
N272  N     N_R   0.882989 0.188805 0.565023 0.000000
C814  C     C_R   0.838692 0.216291 0.554895 0.000000
C815  C     C_R   0.803485 0.255767 0.508863 0.000000
C816  C     C_R   0.759007 0.276581 0.507987 0.000000
C817  C     C_R   0.751561 0.258890 0.553166 0.000000
C818  C     C_R   0.793361 0.222881 0.601279 0.000000
C819  C     C_R   0.836133 0.202418 0.600659 0.000000
N273  N     N_R   0.879346 0.166547 0.642953 0.000000
H901  H     H_    0.889693 0.053411 0.686486 0.000000
H902  H     H_    0.893215 0.092867 0.693039 0.000000
H903  H     H_    0.849316 0.106950 0.628281 0.000000
H904  H     H_    0.923239 0.099704 0.615945 0.000000
H905  H     H_    0.983182 0.111188 0.693066 0.000000
H906  H     H_    0.986638 0.128944 0.632861 0.000000
H907  H     H_    0.811873 0.272091 0.475652 0.000000
H908  H     H_    0.731361 0.307969 0.472383 0.000000
H909  H     H_    0.716279 0.275527 0.551728 0.000000
H910  H     H_    0.791105 0.210319 0.637797 0.000000
C820  C     C_3   0.824357 0.894245 0.586937 0.000000
N274  N     N_3   0.865208 0.908808 0.609069 0.000000
C821  C     C_3   0.835369 0.950778 0.587129 0.000000
C822  C     C_R   0.876419 0.965188 0.610967 0.000000
N275  N     N_R   0.897024 0.948896 0.664060 0.000000
C823  C     C_R   0.927864 0.972978 0.665600 0.000000
C824  C     C_R   0.951394 0.975027 0.705730 0.000000
C825  C     C_R   0.977779 0.004511 0.696403 0.000000
C826  C     C_R   0.982353 0.029099 0.649947 0.000000
C827  C     C_R   0.959876 0.025775 0.611339 0.000000
C828  C     C_R   0.928922 0.999685 0.618636 0.000000
N276  N     N_R   0.896323 0.996985 0.581762 0.000000
H911  H     H_    0.846817 0.874750 0.581188 0.000000
H912  H     H_    0.808382 0.874380 0.615348 0.000000
H913  H     H_    0.787159 0.920959 0.548366 0.000000
H914  H     H_    0.897603 0.910076 0.597581 0.000000
H915  H     H_    0.818236 0.972756 0.543331 0.000000
H916  H     H_    0.798988 0.950829 0.596486 0.000000
H917  H     H_    0.945836 0.956967 0.741063 0.000000
H918  H     H_    0.994483 0.009853 0.724375 0.000000
H919  H     H_    0.002577 0.052385 0.642871 0.000000
H920  H     H_    0.967239 0.043073 0.577331 0.000000
C829  C     C_3   0.720423 0.915786 0.636283 0.000000
N277  N     N_3   0.720753 0.897985 0.686616 0.000000
C830  C     C_3   0.777631 0.889296 0.723257 0.000000
C831  C     C_R   0.818362 0.852610 0.739954 0.000000
N278  N     N_R   0.804324 0.821165 0.737201 0.000000
C832  C     C_R   0.849307 0.808835 0.731858 0.000000
C833  C     C_R   0.857832 0.781134 0.722374 0.000000
C834  C     C_R   0.903779 0.776547 0.712508 0.000000
C835  C     C_R   0.939298 0.800484 0.710176 0.000000
C836  C     C_R   0.929677 0.828907 0.718449 0.000000
C837  C     C_R   0.885910 0.831496 0.731086 0.000000
N279  N     N_R   0.868851 0.858258 0.738505 0.000000
H921  H     H_    0.726248 0.946474 0.619707 0.000000
H922  H     H_    0.754274 0.895209 0.640207 0.000000
H923  H     H_    0.678748 0.919320 0.609424 0.000000
H924  H     H_    0.714023 0.869761 0.701305 0.000000
H925  H     H_    0.792161 0.915866 0.701960 0.000000
H926  H     H_    0.779577 0.886295 0.757563 0.000000
H927  H     H_    0.828781 0.764365 0.720201 0.000000
H928  H     H_    0.910842 0.755067 0.704769 0.000000
H929  H     H_    0.973901 0.797541 0.700751 0.000000
H930  H     H_    0.955465 0.848936 0.714443 0.000000
C838  C     C_3   0.502210 0.093461 0.382223 0.000000
N280  N     N_3   0.489890 0.135415 0.365630 0.000000
C839  C     C_3   0.525053 0.129571 0.413371 0.000000
C840  C     C_R   0.509583 0.166736 0.408384 0.000000
N281  N     N_R   0.500755 0.207020 0.364705 0.000000
C841  C     C_R   0.463490 0.230106 0.365968 0.000000
C842  C     C_R   0.438459 0.272826 0.330700 0.000000
C843  C     C_R   0.399953 0.290649 0.338187 0.000000
C844  C     C_R   0.387145 0.265604 0.379964 0.000000
C845  C     C_R   0.413655 0.222503 0.415569 0.000000
C846  C     C_R   0.453093 0.205301 0.408843 0.000000
N282  N     N_R   0.483956 0.164351 0.438806 0.000000
H931  H     H_    0.466911 0.092272 0.354775 0.000000
H932  H     H_    0.544820 0.083752 0.385408 0.000000
H933  H     H_    0.503835 0.070722 0.421167 0.000000
H934  H     H_    0.446620 0.145921 0.356106 0.000000
H935  H     H_    0.510819 0.109838 0.441789 0.000000
H936  H     H_    0.571076 0.113968 0.430029 0.000000
H937  H     H_    0.448502 0.291796 0.298220 0.000000
H938  H     H_    0.379150 0.324240 0.310971 0.000000
H939  H     H_    0.356136 0.279950 0.384671 0.000000
H940  H     H_    0.403452 0.202912 0.447327 0.000000
C847  C     C_3   0.307412 0.384728 0.866789 0.000000
N283  N     N_3   0.309310 0.401951 0.893410 0.000000
C848  C     C_3   0.308094 0.370515 0.942150 0.000000
C849  C     C_R   0.285782 0.391339 0.958738 0.000000
N284  N     N_R   0.318909 0.385409 0.005058 0.000000
C850  C     C_R   0.277613 0.403089 0.009025 0.000000
C851  C     C_R   0.285496 0.406128 0.048272 0.000000
C852  C     C_R   0.237805 0.428047 0.043057 0.000000
C853  C     C_R   0.183951 0.446925 0.998748 0.000000
C854  C     C_R   0.176885 0.444019 0.959113 0.000000
C855  C     C_R   0.224447 0.421576 0.965265 0.000000
N285  N     N_R   0.227769 0.415026 0.931710 0.000000
H941  H     H_    0.313153 0.407189 0.831765 0.000000
H942  H     H_    0.342207 0.354183 0.893842 0.000000
H943  H     H_    0.265221 0.380301 0.854648 0.000000
H944  H     H_    0.271786 0.427787 0.869208 0.000000
H945  H     H_    0.281627 0.353116 0.936087 0.000000
H946  H     H_    0.350058 0.346269 0.974057 0.000000
H947  H     H_    0.327494 0.392050 0.081973 0.000000
H948  H     H_    0.242636 0.430895 0.073427 0.000000
H949  H     H_    0.147265 0.464357 0.994962 0.000000
H950  H     H_    0.135328 0.459567 0.924256 0.000000
C856  C     C_3   0.001433 0.411415 0.784475 0.000000
N286  N     N_3   0.061495 0.404185 0.811049 0.000000
C857  C     C_3   0.089541 0.382320 0.798890 0.000000
C858  C     C_R   0.151421 0.364691 0.835291 0.000000
N287  N     N_R   0.176316 0.321839 0.865144 0.000000
C859  C     C_R   0.197694 0.309469 0.915516 0.000000
C860  C     C_R   0.225990 0.270751 0.964967 0.000000
C861  C     C_R   0.239291 0.267848 0.009636 0.000000
C862  C     C_R   0.220818 0.301702 0.005856 0.000000
C863  C     C_R   0.194831 0.339821 0.956886 0.000000
C864  C     C_R   0.188637 0.342939 0.913873 0.000000
N288  N     N_R   0.167479 0.378566 0.864585 0.000000
H951  H     H_    0.990044 0.421330 0.744664 0.000000
H952  H     H_    0.993936 0.381938 0.809613 0.000000
H953  H     H_    0.976427 0.436118 0.780575 0.000000
H954  H     H_    0.071137 0.382903 0.851138 0.000000
H955  H     H_    0.073576 0.355887 0.807640 0.000000
H956  H     H_    0.080689 0.403037 0.757127 0.000000
H957  H     H_    0.243675 0.243660 0.971138 0.000000
H958  H     H_    0.266677 0.239575 0.048340 0.000000
H959  H     H_    0.229616 0.298724 0.041018 0.000000
H960  H     H_    0.180872 0.366604 0.952525 0.000000

loop_
_geom_bond_atom_site_label_1
_geom_bond_atom_site_label_2
_geom_bond_distance
_geom_bond_site_symmetry_2
_ccdc_geom_bond_type
Zn1   N2    2.181 1_554  S
Zn1   N6    2.088 .      S
Zn1   N27   2.161 .      S
Zn1   N50   2.065 .      S
Zn2   N5    2.071 .      S
Zn2   N8    2.073 .      S
Zn2   N87   2.075 .      S
Zn2   N284  2.143 .      S
Zn3   N9    2.093 .      S
Zn3   N30   2.076 .      S
Zn3   N59   2.098 .      S
Zn3   N281  2.163 .      S
Zn4   N11   2.037 .      S
Zn4   N14   2.041 .      S
Zn4   N176  2.106 .      S
Zn4   N197  2.093 .      S
Zn5   N18   2.155 .      S
Zn5   N21   2.096 .      S
Zn5   N180  2.099 .      S
Zn5   N207  2.172 .      S
Zn6   N24   2.196 .      S
Zn6   N26   2.141 .      S
Zn6   N29   2.078 .      S
Zn6   N168  2.053 .      S
Zn7   N32   2.120 1_565  S
Zn7   N36   2.159 .      S
Zn7   N39   2.206 .      S
Zn7   N170  2.160 .      S
Zn8   N41   2.003 .      S
Zn8   N141  2.043 .      S
Zn8   N156  2.082 .      S
Zn8   N249  2.095 1_554  S
Zn9   N44   2.178 .      S
Zn9   N47   2.040 .      S
Zn9   N162  2.037 .      S
Zn9   N237  2.142 1_545  S
Zn10  N51   2.109 .      S
Zn10  N53   2.030 1_554  S
Zn10  N164  2.112 .      S
Zn10  N174  2.036 .      S
Zn11  N57   2.070 .      S
Zn11  N60   2.104 .      S
Zn11  N63   2.078 .      S
Zn11  N158  2.071 .      S
Zn12  N23   2.115 .      S
Zn12  N65   2.177 .      S
Zn12  N267  2.096 .      S
Zn12  N276  2.140 1_545  S
Zn13  N68   2.131 .      S
Zn13  N71   2.117 .      S
Zn13  N77   2.123 .      S
Zn13  N83   2.095 .      S
Zn14  N56   2.024 .      S
Zn14  N66   2.121 .      S
Zn14  N264  2.047 .      S
Zn14  N272  2.124 .      S
Zn15  N3    2.056 .      S
Zn15  N15   2.005 .      S
Zn15  N20   2.119 .      S
Zn15  N69   2.016 .      S
Zn16  N72   2.129 .      S
Zn16  N74   2.181 .      S
Zn16  N192  2.155 .      S
Zn16  N204  2.094 .      S
Zn17  N78   2.089 .      S
Zn17  N81   2.157 .      S
Zn17  N195  2.072 .      S
Zn17  N210  2.158 .      S
Zn18  N42   2.060 .      S
Zn18  N62   2.088 .      S
Zn18  N84   2.167 1_554  S
Zn18  N86   2.122 .      S
Zn19  N54   1.999 .      S
Zn19  N255  2.070 .      S
Zn19  N261  2.185 .      S
Zn19  N287  2.177 .      S
Zn20  N90   2.093 .      S
Zn20  N93   2.099 .      S
Zn20  N96   2.139 .      S
Zn20  N98   2.086 .      S
Zn21  N89   2.050 .      S
Zn21  N102  2.107 .      S
Zn21  N104  2.145 .      S
Zn21  N107  2.153 .      S
Zn22  N92   2.127 .      S
Zn22  N110  2.011 .      S
Zn22  N113  2.112 .      S
Zn22  N117  2.120 .      S
Zn23  N95   2.134 .      S
Zn23  N119  2.124 .      S
Zn23  N123  2.088 .      S
Zn23  N126  2.129 .      S
Zn24  N99   2.131 .      S
Zn24  N128  1.979 .      S
Zn24  N131  2.064 .      S
Zn24  N135  2.130 .      S
Zn25  N108  2.067 .      S
Zn25  N114  2.047 .      S
Zn25  N137  2.112 1_554  S
Zn25  N140  2.012 .      S
Zn26  N116  2.131 .      S
Zn26  N143  2.147 .      S
Zn26  N146  2.090 .      S
Zn26  N149  2.172 .      S
Zn27  N101  2.045 .      S
Zn27  N152  2.090 .      S
Zn27  N155  2.147 .      S
Zn27  N159  2.068 .      S
Zn28  N111  2.107 .      S
Zn28  N132  2.092 .      S
Zn28  N161  2.078 1_554  S
Zn28  N165  2.083 1_565  S
Zn29  N35   2.078 .      S
Zn29  N80   2.153 .      S
Zn29  N242  2.096 .      S
Zn29  N270  2.099 .      S
Zn30  N38   2.077 .      S
Zn30  N75   2.101 .      S
Zn30  N246  2.061 .      S
Zn30  N278  2.236 .      S
Zn31  N129  2.004 1_545  S
Zn31  N167  2.098 .      S
Zn31  N171  2.143 .      S
Zn31  N173  1.975 .      S
Zn32  N105  2.179 .      S
Zn32  N177  2.153 .      S
Zn32  N179  2.103 .      S
Zn32  N183  2.185 .      S
Zn33  N120  2.110 .      S
Zn33  N153  2.087 .      S
Zn33  N186  2.089 .      S
Zn33  N189  2.137 1_655  S
Zn34  N134  2.123 .      S
Zn34  N182  2.162 .      S
Zn34  N191  2.159 .      S
Zn34  N194  2.140 .      S
Zn35  N122  2.117 .      S
Zn35  N198  2.233 .      S
Zn35  N201  2.101 .      S
Zn35  N203  2.129 .      S
Zn36  N125  2.215 .      S
Zn36  N206  2.267 .      S
Zn36  N209  2.123 .      S
Zn36  N212  2.158 .      S
Zn37  N147  2.134 .      S
Zn37  N216  2.031 .      S
Zn37  N218  2.039 .      S
Zn37  N221  2.154 .      S
Zn38  N150  2.165 .      S
Zn38  N224  2.116 .      S
Zn38  N227  2.153 .      S
Zn38  N230  2.209 1_545  S
Zn39  N138  2.081 .      S
Zn39  N234  2.085 .      S
Zn39  N236  2.166 .      S
Zn39  N239  2.119 .      S
Zn40  N144  2.152 .      S
Zn40  N243  2.124 .      S
Zn40  N245  2.088 .      S
Zn40  N248  2.070 .      S
Zn41  N12   2.091 .      S
Zn41  N185  2.056 .      S
Zn41  N252  2.094 .      S
Zn41  N254  2.188 1_655  S
Zn42  N17   2.099 .      S
Zn42  N188  2.096 .      S
Zn42  N258  2.127 .      S
Zn42  N260  2.060 .      S
Zn43  N45   2.122 .      S
Zn43  N219  2.129 .      S
Zn43  N257  2.135 .      S
Zn43  N263  2.108 .      S
Zn44  N222  2.166 1_565  S
Zn44  N233  2.076 .      S
Zn44  N266  2.145 .      S
Zn44  N269  2.108 .      S
Zn45  N48   2.077 .      S
Zn45  N228  2.085 .      S
Zn45  N251  2.003 .      S
Zn45  N273  2.098 .      S
Zn46  N231  2.194 .      S
Zn46  N240  2.206 .      S
Zn46  N275  2.110 .      S
Zn46  N279  2.140 .      S
Zn47  N33   2.119 .      S
Zn47  N215  2.117 .      S
Zn47  N225  2.163 .      S
Zn47  N282  2.213 .      S
Zn48  N200  2.136 .      S
Zn48  N213  2.110 .      S
Zn48  N285  2.160 .      S
Zn48  N288  2.091 .      S
C1    N1    1.449 .      S
C1    H1    1.107 .      S
C1    H2    1.103 .      S
C1    H3    1.106 .      S
N1    C2    1.440 .      S
N1    H4    1.042 .      S
C2    C3    1.493 .      S
C2    H5    1.102 .      S
C2    H6    1.094 .      S
N2    Zn1   2.181 1_556  S
C5    H7    1.078 .      S
C6    H8    1.081 .      S
C7    H9    1.081 .      S
C8    H10   1.076 .      S
C10   N4    1.454 .      S
C10   H11   1.103 .      S
C10   H12   1.100 .      S
C10   H13   1.099 .      S
N4    C11   1.462 .      S
N4    H14   1.042 .      S
C11   C12   1.483 .      S
C11   H15   1.085 .      S
C11   H16   1.100 .      S
C14   H17   1.078 .      S
C15   H18   1.080 .      S
C16   H19   1.075 .      S
C17   H20   1.064 .      S
C19   N7    1.454 .      S
C19   H21   1.109 .      S
C19   H22   1.108 .      S
C19   H23   1.109 .      S
N7    C20   1.453 .      S
N7    H24   1.041 .      S
C20   C21   1.489 .      S
C20   H25   1.102 .      S
C20   H26   1.106 .      S
C23   H27   1.077 .      S
C24   H28   1.080 .      S
C25   H29   1.081 .      S
C26   H30   1.075 .      S
C28   N10   1.453 .      S
C28   H31   1.109 .      S
C28   H32   1.109 .      S
C28   H33   1.107 .      S
N10   C29   1.453 .      S
N10   H34   1.043 .      S
C29   C30   1.493 .      S
C29   H35   1.103 .      S
C29   H36   1.104 .      S
C32   H37   1.070 .      S
C33   H38   1.081 .      S
C34   H39   1.081 .      S
C35   H40   1.074 .      S
C37   N13   1.453 .      S
C37   H41   1.108 .      S
C37   H42   1.106 .      S
C37   H43   1.109 .      S
N13   C38   1.451 .      S
N13   H44   1.044 .      S
C38   C39   1.493 .      S
C38   H45   1.099 .      S
C38   H46   1.096 .      S
C41   H47   1.076 .      S
C42   H48   1.081 .      S
C43   H49   1.081 .      S
C44   H50   1.081 .      S
C46   N16   1.455 .      S
C46   H51   1.106 .      S
C46   H52   1.109 .      S
C46   H53   1.104 .      S
N16   C47   1.456 .      S
N16   H54   1.044 .      S
C47   C48   1.480 .      S
C47   H55   1.098 .      S
C47   H56   1.097 .      S
C50   H57   1.079 .      S
C51   H58   1.081 .      S
C52   H59   1.081 .      S
C53   H60   1.070 .      S
C55   N19   1.457 .      S
C55   H61   1.105 .      S
C55   H62   1.108 .      S
C55   H63   1.108 .      S
N19   C56   1.447 .      S
N19   H64   1.043 .      S
C56   C57   1.483 .      S
C56   H65   1.100 .      S
C56   H66   1.105 .      S
C59   H67   1.077 .      S
C60   H68   1.077 .      S
C61   H69   1.072 .      S
C62   H70   1.073 .      S
C64   N22   1.419 .      S
C64   H71   1.101 .      S
C64   H72   1.081 .      S
C64   H73   1.082 .      S
N22   C65   1.427 .      S
N22   H74   1.031 .      S
C65   C66   1.446 .      S
C65   H75   1.101 .      S
C65   H76   1.107 .      S
C68   H77   1.081 .      S
C69   H78   1.081 .      S
C70   H79   1.081 .      S
C71   H80   1.056 .      S
C73   N25   1.441 .      S
C73   H81   1.109 .      S
C73   H82   1.101 .      S
C73   H83   1.104 .      S
N25   C74   1.458 .      S
N25   H84   1.042 .      S
C74   C75   1.467 .      S
C74   H85   1.085 .      S
C74   H86   1.088 .      S
C77   H87   1.075 .      S
C78   H88   1.081 .      S
C79   H89   1.081 .      S
C80   H90   1.074 .      S
C82   N28   1.428 .      S
C82   H91   1.085 .      S
C82   H92   1.095 .      S
C82   H93   1.102 .      S
N28   C83   1.443 .      S
N28   H94   1.036 .      S
C83   C84   1.454 .      S
C83   H95   1.102 .      S
C83   H96   1.105 .      S
C86   H97   1.075 .      S
C87   H98   1.077 .      S
C88   H99   1.074 .      S
C89   H100  1.077 .      S
C91   N31   1.453 .      S
C91   H101  1.109 .      S
C91   H102  1.109 .      S
C91   H103  1.109 .      S
N31   C92   1.452 .      S
N31   H104  1.042 .      S
C92   C93   1.495 .      S
C92   H105  1.109 .      S
C92   H106  1.107 .      S
N32   Zn7   2.120 1_545  S
C95   H107  1.058 .      S
C96   H108  1.076 .      S
C97   H109  1.058 .      S
C98   H110  1.065 .      S
C100  N34   1.442 .      S
C100  H111  1.094 .      S
C100  H112  1.104 .      S
C100  H113  1.104 .      S
N34   C101  1.433 .      S
N34   H114  1.041 .      S
C101  C102  1.471 .      S
C101  H115  1.109 .      S
C101  H116  1.107 .      S
C104  H117  1.073 .      S
C105  H118  1.080 .      S
C106  H119  1.079 1_565  S
C107  H120  1.053 1_565  S
H119  C106  1.079 1_545  S
H120  C107  1.053 1_545  S
C109  N37   1.424 .      S
C109  H121  1.101 .      S
C109  H122  1.093 .      S
C109  H123  1.101 .      S
N37   C110  1.412 .      S
N37   H124  1.031 .      S
C110  C111  1.447 .      S
C110  H125  1.106 .      S
C110  H126  1.092 .      S
C113  H127  1.065 .      S
C114  H128  1.081 .      S
C115  H129  1.079 .      S
C116  H130  1.065 .      S
C118  N40   1.453 1_556  S
C118  H131  1.110 .      S
C118  H132  1.109 .      S
C118  H133  1.104 .      S
N40   C118  1.453 1_554  S
N40   C119  1.442 .      S
N40   H134  1.043 .      S
C119  C120  1.492 .      S
C119  H135  1.101 .      S
C119  H136  1.097 1_554  S
C122  H137  1.062 .      S
C123  H138  1.081 .      S
C124  H139  1.081 .      S
C125  H140  1.060 .      S
H136  C119  1.097 1_556  S
C127  N43   1.465 .      S
C127  H141  1.098 .      S
C127  H142  1.107 .      S
C127  H143  1.098 .      S
N43   C128  1.451 .      S
N43   H144  1.022 .      S
C128  C129  1.446 .      S
C128  H145  1.100 .      S
C128  H146  1.108 .      S
C131  H147  1.068 .      S
C132  H148  1.080 .      S
C133  H149  1.078 .      S
C134  H150  1.055 .      S
C136  N46   1.450 .      S
C136  H151  1.109 .      S
C136  H152  1.097 .      S
C136  H153  1.100 .      S
N46   C137  1.445 .      S
N46   H154  1.042 .      S
C137  C138  1.487 .      S
C137  H155  1.097 .      S
C137  H156  1.106 .      S
C140  H157  1.056 1_545  S
C141  H158  1.060 .      S
C142  H159  1.078 .      S
C143  H160  1.045 .      S
H157  C140  1.056 1_565  S
C145  N49   1.459 .      S
C145  H161  1.108 .      S
C145  H162  1.104 .      S
C145  H163  1.105 .      S
N49   C146  1.438 .      S
N49   H164  1.043 .      S
C146  C147  1.473 .      S
C146  H165  1.106 .      S
C146  H166  1.105 .      S
C149  H167  1.070 .      S
C150  H168  1.081 .      S
C151  H169  1.081 .      S
C152  H170  1.080 .      S
C154  N52   1.450 .      S
C154  H171  1.104 .      S
C154  H172  1.093 .      S
C154  H173  1.092 .      S
N52   C155  1.432 .      S
N52   H174  1.039 .      S
C155  C156  1.474 .      S
C155  H175  1.100 .      S
C155  H176  1.078 .      S
N53   Zn10  2.030 1_556  S
C158  H177  1.074 .      S
C159  H178  1.081 .      S
C160  H179  1.081 .      S
C161  H180  1.077 .      S
C163  N55   1.452 .      S
C163  H181  1.102 .      S
C163  H182  1.106 .      S
C163  H183  1.099 .      S
N55   C164  1.456 .      S
N55   H184  1.025 .      S
C164  C165  1.466 .      S
C164  H185  1.085 .      S
C164  H186  1.107 .      S
C167  H187  1.074 .      S
C168  H188  1.081 .      S
C169  H189  1.081 .      S
C170  H190  1.077 .      S
C172  N58   1.439 .      S
C172  H191  1.090 .      S
C172  H192  1.107 .      S
C172  H193  1.106 .      S
N58   C173  1.427 .      S
N58   H194  1.029 .      S
C173  C174  1.464 .      S
C173  H195  1.099 .      S
C173  H196  1.087 .      S
C176  H197  1.065 .      S
C177  H198  1.080 .      S
C178  H199  1.079 .      S
C179  H200  1.077 .      S
C181  N61   1.453 .      S
C181  H201  1.109 .      S
C181  H202  1.107 .      S
C181  H203  1.108 .      S
N61   C182  1.445 .      S
N61   H204  1.032 .      S
C182  C183  1.486 .      S
C182  H205  1.106 .      S
C182  H206  1.102 .      S
C185  H207  1.063 .      S
C186  H208  1.081 .      S
C187  H209  1.081 .      S
C188  H210  1.058 .      S
C190  N64   1.409 .      S
C190  H211  1.097 .      S
C190  H212  1.098 .      S
C190  H213  1.097 .      S
N64   C191  1.418 .      S
N64   H214  1.030 .      S
C191  C192  1.438 .      S
C191  H215  1.104 .      S
C191  H216  1.097 .      S
C194  H217  1.068 .      S
C195  H218  1.081 .      S
C196  H219  1.081 .      S
C197  H220  1.072 .      S
C199  N67   1.449 1_554  S
C199  H221  1.109 .      S
C199  H222  1.109 .      S
C199  H223  1.109 .      S
N67   C199  1.449 1_556  S
N67   C200  1.453 .      S
N67   H224  1.042 .      S
C200  C201  1.474 .      S
C200  H225  1.109 .      S
C200  H226  1.094 .      S
C203  H227  1.044 .      S
C204  H228  1.058 .      S
C205  H229  1.081 .      S
C206  H230  1.072 .      S
C208  N70   1.451 .      S
C208  H231  1.108 .      S
C208  H232  1.104 .      S
C208  H233  1.103 .      S
N70   C209  1.452 .      S
N70   H234  1.041 .      S
C209  C210  1.475 .      S
C209  H235  1.097 .      S
C209  H236  1.105 .      S
C212  H237  1.059 .      S
C213  H238  1.071 .      S
C214  H239  1.061 .      S
C215  H240  1.072 .      S
C217  N73   1.447 .      S
C217  H241  1.105 .      S
C217  H242  1.106 .      S
C217  H243  1.083 .      S
N73   C218  1.442 .      S
N73   H244  1.038 .      S
C218  C219  1.467 .      S
C218  H245  1.098 .      S
C218  H246  1.098 .      S
C221  H247  1.064 .      S
C222  H248  1.081 .      S
C223  H249  1.081 .      S
C224  H250  1.080 .      S
C226  N76   1.450 .      S
C226  H251  1.086 .      S
C226  H252  1.099 .      S
C226  H253  1.099 .      S
N76   C227  1.440 .      S
N76   H254  1.027 .      S
C227  C228  1.453 .      S
C227  H255  1.090 .      S
C227  H256  1.102 .      S
C230  H257  1.080 .      S
C231  H258  1.081 .      S
C232  H259  1.077 .      S
C233  H260  1.078 .      S
C235  N79   1.454 .      S
C235  H261  1.109 .      S
C235  H262  1.105 .      S
C235  H263  1.099 .      S
N79   C236  1.449 .      S
N79   H264  1.037 .      S
C236  C237  1.469 .      S
C236  H265  1.107 .      S
C236  H266  1.107 .      S
C239  H267  1.077 .      S
C240  H268  1.081 .      S
C241  H269  1.081 .      S
C242  H270  1.080 .      S
C244  N82   1.450 .      S
C244  H271  1.100 .      S
C244  H272  1.093 .      S
C244  H273  1.099 .      S
N82   C245  1.444 .      S
N82   H274  1.044 .      S
C245  C246  1.471 .      S
C245  H275  1.097 .      S
C245  H276  1.097 .      S
C248  H277  1.071 .      S
C249  H278  1.080 .      S
C250  H279  1.081 .      S
C251  H280  1.068 .      S
N84   Zn18  2.167 1_556  S
C253  N85   1.451 1_556  S
C253  H281  1.095 .      S
C253  H282  1.102 .      S
C253  H283  1.102 .      S
N85   C253  1.451 1_554  S
N85   C254  1.451 .      S
N85   H284  1.024 .      S
C254  C255  1.450 .      S
C254  H285  1.080 .      S
C254  H286  1.107 .      S
C257  H287  1.045 .      S
C258  H288  1.081 .      S
C259  H289  1.077 .      S
C260  H290  1.054 .      S
C262  N88   1.456 .      S
C262  H291  1.100 .      S
C262  H292  1.104 .      S
C262  H293  1.098 .      S
N88   C263  1.446 .      S
N88   H294  1.039 .      S
C263  C264  1.498 .      S
C263  H295  1.094 .      S
C263  H296  1.092 .      S
C266  H297  1.060 .      S
C267  H298  1.081 .      S
C268  H299  1.078 .      S
C269  H300  1.059 .      S
C271  N91   1.456 .      S
C271  H301  1.107 .      S
C271  H302  1.108 .      S
C271  H303  1.108 .      S
N91   C272  1.453 .      S
N91   H304  1.043 .      S
C272  C273  1.480 .      S
C272  H305  1.095 .      S
C272  H306  1.096 .      S
C275  H307  1.076 .      S
C276  H308  1.081 .      S
C277  H309  1.080 .      S
C278  H310  1.057 .      S
C280  N94   1.453 .      S
C280  H311  1.109 .      S
C280  H312  1.108 .      S
C280  H313  1.105 .      S
N94   C281  1.455 .      S
N94   H314  1.042 .      S
C281  C282  1.485 .      S
C281  H315  1.097 .      S
C281  H316  1.105 .      S
C284  H317  1.037 .      S
C285  H318  1.062 .      S
C286  H319  1.073 .      S
C287  H320  1.068 .      S
C289  N97   1.440 .      S
C289  H321  1.099 .      S
C289  H322  1.104 .      S
C289  H323  1.096 .      S
N97   C290  1.441 .      S
N97   H324  1.026 .      S
C290  C291  1.470 .      S
C290  H325  1.077 .      S
C290  H326  1.100 .      S
C293  H327  1.077 .      S
C294  H328  1.081 .      S
C295  H329  1.081 .      S
C296  H330  1.045 .      S
C298  N100  1.458 .      S
C298  H331  1.109 .      S
C298  H332  1.108 .      S
C298  H333  1.106 .      S
N100  C299  1.448 .      S
N100  H334  1.039 .      S
C299  C300  1.489 .      S
C299  H335  1.106 .      S
C299  H336  1.107 .      S
C302  H337  1.040 .      S
C303  H338  1.080 .      S
C304  H339  1.071 .      S
C305  H340  1.023 .      S
C307  N103  1.448 .      S
C307  H341  1.098 .      S
C307  H342  1.090 .      S
C307  H343  1.087 .      S
N103  C308  1.437 .      S
N103  H344  1.039 .      S
C308  C309  1.443 .      S
C308  H345  1.081 .      S
C308  H346  1.086 .      S
C311  H347  1.072 .      S
C312  H348  1.081 .      S
C313  H349  1.081 .      S
C314  H350  1.071 .      S
C316  N106  1.455 .      S
C316  H351  1.095 .      S
C316  H352  1.101 .      S
C316  H353  1.099 .      S
N106  C317  1.460 .      S
N106  H354  1.038 .      S
C317  C318  1.427 .      S
C317  H355  1.063 .      S
C317  H356  1.075 .      S
C320  H357  1.072 .      S
C321  H358  1.081 .      S
C322  H359  1.081 .      S
C323  H360  1.074 .      S
C325  N109  1.456 .      S
C325  H361  1.107 .      S
C325  H362  1.109 .      S
C325  H363  1.106 .      S
N109  C326  1.452 .      S
N109  H364  1.033 .      S
C326  C327  1.494 .      S
C326  H365  1.099 .      S
C326  H366  1.100 .      S
C329  H367  1.076 .      S
C330  H368  1.080 .      S
C331  H369  1.075 .      S
C332  H370  1.050 .      S
C334  N112  1.457 .      S
C334  H371  1.107 .      S
C334  H372  1.109 .      S
C334  H373  1.108 .      S
N112  C335  1.444 .      S
N112  H374  1.037 .      S
C335  C336  1.498 .      S
C335  H375  1.094 .      S
C335  H376  1.093 .      S
C338  H377  1.062 .      S
C339  H378  1.076 .      S
C340  H379  1.079 .      S
C341  H380  1.071 .      S
C343  N115  1.453 .      S
C343  H381  1.101 .      S
C343  H382  1.107 .      S
C343  H383  1.098 .      S
N115  C344  1.446 .      S
N115  H384  1.035 .      S
C344  C345  1.457 .      S
C344  H385  1.107 .      S
C344  H386  1.102 .      S
C347  H387  1.074 .      S
C348  H388  1.081 .      S
C349  H389  1.081 .      S
C350  H390  1.075 .      S
C352  N118  1.453 .      S
C352  H391  1.107 .      S
C352  H392  1.109 .      S
C352  H393  1.109 .      S
N118  C353  1.449 .      S
N118  H394  1.043 .      S
C353  C354  1.493 .      S
C353  H395  1.106 .      S
C353  H396  1.107 .      S
C356  H397  1.067 .      S
C357  H398  1.055 .      S
C358  H399  1.078 .      S
C359  H400  1.059 .      S
C361  N121  1.424 .      S
C361  H401  1.092 .      S
C361  H402  1.104 .      S
C361  H403  1.099 .      S
N121  C362  1.423 .      S
N121  H404  1.035 .      S
C362  C363  1.420 .      S
C362  H405  1.095 .      S
C362  H406  1.087 .      S
C365  H407  1.079 .      S
C366  H408  1.081 .      S
C367  H409  1.081 .      S
C368  H410  1.077 .      S
C370  N124  1.443 .      S
C370  H411  1.106 .      S
C370  H412  1.094 .      S
C370  H413  1.084 1_455  S
N124  C371  1.444 .      S
N124  H414  1.036 1_455  S
C371  C372  1.464 .      S
C371  H415  1.097 .      S
C371  H416  1.088 .      S
C374  H417  1.076 .      S
C375  H418  1.081 .      S
C376  H419  1.081 .      S
C377  H420  1.076 .      S
H413  C370  1.084 1_655  S
H414  N124  1.036 1_655  S
C379  N127  1.443 .      S
C379  H421  1.105 .      S
C379  H422  1.082 .      S
C379  H423  1.108 .      S
N127  C380  1.459 .      S
N127  H424  1.042 .      S
C380  C381  1.477 .      S
C380  H425  1.099 .      S
C380  H426  1.101 .      S
C383  H427  1.072 .      S
C384  H428  1.081 .      S
C385  H429  1.080 1_565  S
C386  H430  1.051 .      S
N129  Zn31  2.004 1_565  S
H429  C385  1.080 1_545  S
C388  N130  1.453 .      S
C388  H431  1.109 .      S
C388  H432  1.100 .      S
C388  H433  1.103 .      S
N130  C389  1.449 .      S
N130  H434  1.041 .      S
C389  C390  1.486 .      S
C389  H435  1.101 .      S
C389  H436  1.094 .      S
C392  H437  1.075 .      S
C393  H438  1.081 .      S
C394  H439  1.081 .      S
C395  H440  1.070 .      S
C397  N133  1.433 .      S
C397  H441  1.096 .      S
C397  H442  1.089 .      S
C397  H443  1.104 .      S
N133  C398  1.430 .      S
N133  H444  1.036 .      S
C398  C399  1.459 .      S
C398  H445  1.107 .      S
C398  H446  1.101 .      S
C401  H447  1.070 .      S
C402  H448  1.073 .      S
C403  H449  1.081 .      S
C404  H450  1.049 .      S
C406  N136  1.454 .      S
C406  H451  1.109 .      S
C406  H452  1.109 .      S
C406  H453  1.109 .      S
N136  C407  1.453 1_554  S
N136  H454  1.044 .      S
C407  N136  1.453 1_556  S
C407  C408  1.489 .      S
C407  H455  1.103 .      S
C407  H456  1.109 1_556  S
N137  Zn25  2.112 1_556  S
C410  H457  1.059 .      S
C411  H458  1.047 .      S
C412  H459  1.054 .      S
C413  H460  1.054 .      S
H456  C407  1.109 1_554  S
C415  N139  1.455 .      S
C415  H461  1.090 .      S
C415  H462  1.107 .      S
C415  H463  1.092 .      S
N139  C416  1.459 .      S
N139  H464  1.043 .      S
C416  C417  1.479 1_556  S
C416  H465  1.099 .      S
C416  H466  1.106 .      S
C417  C416  1.479 1_554  S
C419  H467  1.072 .      S
C420  H468  1.081 .      S
C421  H469  1.072 .      S
C422  H470  1.065 .      S
C424  N142  1.457 .      S
C424  H471  1.093 .      S
C424  H472  1.096 .      S
C424  H473  1.107 .      S
N142  C425  1.462 .      S
N142  H474  1.042 .      S
C425  C426  1.488 .      S
C425  H475  1.099 .      S
C425  H476  1.097 .      S
C428  H477  1.075 .      S
C429  H478  1.081 .      S
C430  H479  1.081 .      S
C431  H480  1.080 .      S
C433  N145  1.453 .      S
C433  H481  1.108 .      S
C433  H482  1.098 .      S
C433  H483  1.102 .      S
N145  C434  1.450 .      S
N145  H484  1.039 .      S
C434  C435  1.476 .      S
C434  H485  1.079 .      S
C434  H486  1.106 1_545  S
C437  H487  1.071 1_545  S
C438  H488  1.076 .      S
C439  H489  1.077 .      S
C440  H490  1.072 .      S
H486  C434  1.106 1_565  S
H487  C437  1.071 1_565  S
C442  N148  1.454 .      S
C442  H491  1.109 .      S
C442  H492  1.098 .      S
C442  H493  1.097 .      S
N148  C443  1.452 .      S
N148  H494  1.041 .      S
C443  C444  1.464 .      S
C443  H495  1.103 .      S
C443  H496  1.088 .      S
C446  H497  1.072 .      S
C447  H498  1.081 .      S
C448  H499  1.081 .      S
C449  H500  1.074 .      S
C451  N151  1.457 .      S
C451  H501  1.109 .      S
C451  H502  1.106 .      S
C451  H503  1.102 .      S
N151  C452  1.444 .      S
N151  H504  1.035 .      S
C452  C453  1.497 .      S
C452  H505  1.084 .      S
C452  H506  1.109 .      S
C455  H507  1.079 .      S
C456  H508  1.081 .      S
C457  H509  1.081 .      S
C458  H510  1.071 .      S
C460  N154  1.442 .      S
C460  H511  1.105 .      S
C460  H512  1.099 .      S
C460  H513  1.102 .      S
N154  C461  1.461 .      S
N154  H514  1.039 .      S
C461  C462  1.484 .      S
C461  H515  1.087 .      S
C461  H516  1.096 .      S
C464  H517  1.064 .      S
C465  H518  1.081 .      S
C466  H519  1.080 .      S
C467  H520  1.063 .      S
C469  N157  1.454 .      S
C469  H521  1.106 .      S
C469  H522  1.104 .      S
C469  H523  1.108 .      S
N157  C470  1.442 .      S
N157  H524  1.037 .      S
C470  C471  1.468 .      S
C470  H525  1.089 .      S
C470  H526  1.095 .      S
C473  H527  1.065 .      S
C474  H528  1.081 .      S
C475  H529  1.079 .      S
C476  H530  1.073 .      S
C478  N160  1.444 .      S
C478  H531  1.105 .      S
C478  H532  1.106 1_545  S
C478  H533  1.102 .      S
N160  C479  1.439 .      S
N160  H534  1.038 .      S
C479  C480  1.473 .      S
C479  H535  1.095 .      S
C479  H536  1.079 1_545  S
N161  Zn28  2.078 1_556  S
C482  H537  1.073 .      S
C483  H538  1.081 1_545  S
C484  H539  1.081 .      S
C485  H540  1.079 .      S
H532  C478  1.106 1_565  S
H536  C479  1.079 1_565  S
H538  C483  1.081 1_565  S
C487  N163  1.457 .      S
C487  H541  1.103 .      S
C487  H542  1.108 .      S
C487  H543  1.105 .      S
N163  C488  1.452 .      S
N163  H544  1.044 .      S
C488  C489  1.470 .      S
C488  H545  1.095 .      S
C488  H546  1.094 .      S
C491  H547  1.067 .      S
C492  H548  1.081 .      S
C493  H549  1.081 .      S
C494  H550  1.057 1_554  S
N165  Zn28  2.083 1_545  S
H550  C494  1.057 1_556  S
C496  N166  1.456 .      S
C496  H551  1.107 .      S
C496  H552  1.099 .      S
C496  H553  1.103 .      S
N166  C497  1.446 .      S
N166  H554  1.041 .      S
C497  C498  1.474 .      S
C497  H555  1.099 .      S
C497  H556  1.099 .      S
C500  H557  1.068 .      S
C501  H558  1.081 .      S
C502  H559  1.081 .      S
C503  H560  1.081 .      S
C505  N169  1.453 .      S
C505  H561  1.106 1_565  S
C505  H562  1.107 .      S
C505  H563  1.108 .      S
N169  C506  1.439 .      S
N169  H564  1.037 1_565  S
C506  C507  1.477 .      S
C506  H565  1.057 .      S
C506  H566  1.083 .      S
C509  H567  1.061 .      S
C510  H568  1.081 .      S
C511  H569  1.081 .      S
C512  H570  1.057 .      S
H561  C505  1.106 1_545  S
H564  N169  1.037 1_545  S
C514  N172  1.457 .      S
C514  H571  1.106 .      S
C514  H572  1.098 1_545  S
C514  H573  1.102 .      S
N172  C515  1.440 .      S
N172  H574  1.038 .      S
C515  C516  1.479 .      S
C515  H575  1.104 .      S
C515  H576  1.089 .      S
C518  H577  1.069 .      S
C519  H578  1.081 .      S
C520  H579  1.079 .      S
C521  H580  1.071 .      S
H572  C514  1.098 1_565  S
C523  N175  1.448 .      S
C523  H581  1.108 .      S
C523  H582  1.103 .      S
C523  H583  1.100 .      S
N175  C524  1.457 .      S
N175  H584  1.042 .      S
C524  C525  1.472 .      S
C524  H585  1.090 .      S
C524  H586  1.104 .      S
C527  H587  1.056 .      S
C528  H588  1.066 .      S
C529  H589  1.068 .      S
C530  H590  1.052 .      S
C532  N178  1.456 .      S
C532  H591  1.104 .      S
C532  H592  1.109 .      S
C532  H593  1.105 .      S
N178  C533  1.452 .      S
N178  H594  1.042 .      S
C533  C534  1.472 .      S
C533  H595  1.100 .      S
C533  H596  1.099 .      S
C536  H597  1.078 .      S
C537  H598  1.081 .      S
C538  H599  1.081 .      S
C539  H600  1.073 .      S
C541  N181  1.434 .      S
C541  H601  1.093 .      S
C541  H602  1.095 .      S
C541  H603  1.096 .      S
N181  C542  1.447 .      S
N181  H604  1.035 .      S
C542  C543  1.465 .      S
C542  H605  1.089 .      S
C542  H606  1.092 .      S
C545  H607  1.080 .      S
C546  H608  1.081 .      S
C547  H609  1.081 .      S
C548  H610  1.073 .      S
C550  N184  1.446 .      S
C550  H611  1.100 .      S
C550  H612  1.097 .      S
C550  H613  1.076 .      S
N184  C551  1.447 .      S
N184  H614  1.031 .      S
C551  C552  1.474 .      S
C551  H615  1.088 .      S
C551  H616  1.094 .      S
C554  H617  1.079 .      S
C555  H618  1.065 .      S
C556  H619  1.068 .      S
C557  H620  1.070 .      S
C559  N187  1.451 .      S
C559  H621  1.109 .      S
C559  H622  1.101 1_455  S
C559  H623  1.107 1_455  S
N187  C560  1.455 .      S
N187  H624  1.043 .      S
C560  C561  1.479 .      S
C560  H625  1.104 1_455  S
C560  H626  1.103 .      S
C563  H627  1.053 .      S
C564  H628  1.074 .      S
C565  H629  1.078 .      S
C566  H630  1.062 1_455  S
N189  Zn33  2.137 1_455  S
H622  C559  1.101 1_655  S
H623  C559  1.107 1_655  S
H625  C560  1.104 1_655  S
H630  C566  1.062 1_655  S
C568  N190  1.456 .      S
C568  H631  1.107 .      S
C568  H632  1.105 .      S
C568  H633  1.104 .      S
N190  C569  1.440 .      S
N190  H634  1.034 .      S
C569  C570  1.471 .      S
C569  H635  1.094 .      S
C569  H636  1.078 .      S
C572  H637  1.051 .      S
C573  H638  1.065 .      S
C574  H639  1.080 .      S
C575  H640  1.076 .      S
C577  N193  1.456 .      S
C577  H641  1.110 .      S
C577  H642  1.107 .      S
C577  H643  1.109 .      S
N193  C578  1.455 .      S
N193  H644  1.043 .      S
C578  C579  1.491 .      S
C578  H645  1.100 .      S
C578  H646  1.107 .      S
C581  H647  1.050 .      S
C582  H648  1.071 .      S
C583  H649  1.079 .      S
C584  H650  1.075 .      S
C586  N196  1.454 .      S
C586  H651  1.109 .      S
C586  H652  1.108 .      S
C586  H653  1.109 .      S
N196  C587  1.451 .      S
N196  H654  1.043 .      S
C587  C588  1.476 .      S
C587  H655  1.090 .      S
C587  H656  1.098 .      S
C590  H657  1.076 .      S
C591  H658  1.059 .      S
C592  H659  1.062 .      S
C593  H660  1.032 .      S
C595  N199  1.452 .      S
C595  H661  1.108 .      S
C595  H662  1.086 .      S
C595  H663  1.071 .      S
N199  C596  1.453 .      S
N199  H664  1.042 .      S
C596  C597  1.470 .      S
C596  H665  1.085 1_455  S
C596  H666  1.100 .      S
C599  H667  1.065 .      S
C600  H668  1.081 1_556  S
C601  H669  1.081 .      S
C602  H670  1.079 .      S
H665  C596  1.085 1_655  S
H668  C600  1.081 1_554  S
C604  N202  1.452 .      S
C604  H671  1.108 .      S
C604  H672  1.091 .      S
C604  H673  1.097 .      S
N202  C605  1.450 .      S
N202  H674  1.039 .      S
C605  C606  1.483 .      S
C605  H675  1.091 .      S
C605  H676  1.106 .      S
C608  H677  1.069 .      S
C609  H678  1.081 .      S
C610  H679  1.081 .      S
C611  H680  1.077 .      S
C613  N205  1.452 .      S
C613  H681  1.095 .      S
C613  H682  1.081 .      S
C613  H683  1.089 .      S
N205  C614  1.450 .      S
N205  H684  1.042 .      S
C614  C615  1.494 .      S
C614  H685  1.075 .      S
C614  H686  1.099 .      S
C617  H687  1.048 .      S
C618  H688  1.081 .      S
C619  H689  1.081 .      S
C620  H690  1.063 .      S
C622  N208  1.438 .      S
C622  H691  1.099 .      S
C622  H692  1.107 .      S
C622  H693  1.090 .      S
N208  C623  1.461 .      S
N208  H694  1.019 .      S
C623  C624  1.497 .      S
C623  H695  1.097 .      S
C623  H696  1.085 .      S
C626  H697  1.079 .      S
C627  H698  1.081 .      S
C628  H699  1.081 .      S
C629  H700  1.076 .      S
C631  N211  1.447 .      S
C631  H701  1.108 .      S
C631  H702  1.106 .      S
C631  H703  1.093 .      S
N211  C632  1.426 .      S
N211  H704  1.035 .      S
C632  C633  1.428 .      S
C632  H705  1.074 .      S
C632  H706  1.092 .      S
C635  H707  1.059 .      S
C636  H708  1.081 .      S
C637  H709  1.080 .      S
C638  H710  1.069 .      S
C640  N214  1.453 .      S
C640  H711  1.108 .      S
C640  H712  1.108 .      S
C640  H713  1.110 .      S
N214  C641  1.452 .      S
N214  H714  1.040 .      S
C641  C642  1.489 .      S
C641  H715  1.103 .      S
C641  H716  1.107 .      S
C644  H717  1.047 .      S
C645  H718  1.069 .      S
C646  H719  1.070 .      S
C647  H720  1.053 .      S
C649  N217  1.452 .      S
C649  H721  1.109 .      S
C649  H722  1.109 .      S
C649  H723  1.109 .      S
N217  C650  1.452 .      S
N217  H724  1.043 .      S
C650  C651  1.497 .      S
C650  H725  1.107 .      S
C650  H726  1.105 .      S
C653  H727  1.075 .      S
C654  H728  1.081 .      S
C655  H729  1.081 .      S
C656  H730  1.073 .      S
C658  N220  1.438 .      S
C658  H731  1.091 .      S
C658  H732  1.089 .      S
C658  H733  1.102 .      S
N220  C659  1.443 .      S
N220  H734  1.037 .      S
C659  C660  1.471 1_565  S
C659  H735  1.107 .      S
C659  H736  1.107 .      S
C660  C659  1.471 1_545  S
C662  H737  1.078 .      S
C663  H738  1.081 .      S
C664  H739  1.081 .      S
C665  H740  1.064 .      S
N222  Zn44  2.166 1_545  S
C667  N223  1.424 .      S
C667  H741  1.091 .      S
C667  H742  1.102 .      S
C667  H743  1.095 .      S
N223  C668  1.439 1_565  S
N223  H744  1.032 .      S
C668  N223  1.439 1_545  S
C668  C669  1.452 .      S
C668  H745  1.095 .      S
C668  H746  1.104 .      S
C671  H747  1.074 .      S
C672  H748  1.081 .      S
C673  H749  1.081 .      S
C674  H750  1.065 .      S
C676  N226  1.462 .      S
C676  H751  1.108 .      S
C676  H752  1.108 .      S
C676  H753  1.108 .      S
N226  C677  1.425 .      S
N226  H754  1.039 .      S
C677  C678  1.474 .      S
C677  H755  1.080 .      S
C677  H756  1.107 .      S
C680  H757  1.074 .      S
C681  H758  1.081 .      S
C682  H759  1.081 .      S
C683  H760  1.081 .      S
C685  N229  1.442 .      S
C685  H761  1.082 .      S
C685  H762  1.061 .      S
C685  H763  1.082 .      S
N229  C686  1.439 .      S
N229  H764  1.041 1_545  S
C686  C687  1.438 1_545  S
C686  H765  1.103 1_545  S
C686  H766  1.100 .      S
C687  C686  1.438 1_565  S
N230  Zn38  2.209 1_565  S
C689  H767  1.067 .      S
C690  H768  1.081 .      S
C691  H769  1.077 .      S
C692  H770  1.078 .      S
H764  N229  1.041 1_565  S
H765  C686  1.103 1_565  S
C694  N232  1.453 .      S
C694  H771  1.108 .      S
C694  H772  1.103 .      S
C694  H773  1.109 .      S
N232  C695  1.453 .      S
N232  H774  1.039 .      S
C695  C696  1.485 .      S
C695  H775  1.099 .      S
C695  H776  1.108 .      S
C698  H777  1.073 1_565  S
C699  H778  1.056 .      S
C700  H779  1.077 1_565  S
C701  H780  1.072 .      S
H777  C698  1.073 1_545  S
H779  C700  1.077 1_545  S
C703  N235  1.442 .      S
C703  H781  1.108 .      S
C703  H782  1.102 .      S
C703  H783  1.100 1_565  S
N235  C704  1.439 .      S
N235  H784  1.031 .      S
C704  C705  1.467 .      S
C704  H785  1.088 1_565  S
C704  H786  1.103 .      S
C707  H787  1.079 .      S
C708  H788  1.080 1_556  S
C709  H789  1.081 1_556  S
C710  H790  1.054 .      S
N237  Zn9   2.142 1_565  S
H783  C703  1.100 1_545  S
H785  C704  1.088 1_545  S
H788  C708  1.080 1_554  S
H789  C709  1.081 1_554  S
C712  N238  1.450 .      S
C712  H791  1.108 .      S
C712  H792  1.105 .      S
C712  H793  1.109 .      S
N238  C713  1.460 .      S
N238  H794  1.041 .      S
C713  C714  1.482 .      S
C713  H795  1.097 1_455  S
C713  H796  1.098 .      S
C716  H797  1.076 .      S
C717  H798  1.081 .      S
C718  H799  1.081 .      S
C719  H800  1.075 1_455  S
H795  C713  1.097 1_655  S
H800  C719  1.075 1_655  S
C721  N241  1.442 .      S
C721  H801  1.100 .      S
C721  H802  1.103 .      S
C721  H803  1.100 .      S
N241  C722  1.431 .      S
N241  H804  1.033 .      S
C722  C723  1.439 .      S
C722  H805  1.096 .      S
C722  H806  1.075 .      S
C725  H807  1.060 .      S
C726  H808  1.081 .      S
C727  H809  1.074 .      S
C728  H810  1.069 .      S
C730  N244  1.454 .      S
C730  H811  1.109 .      S
C730  H812  1.109 .      S
C730  H813  1.108 .      S
N244  C731  1.453 .      S
N244  H814  1.044 .      S
C731  C732  1.490 .      S
C731  H815  1.100 .      S
C731  H816  1.102 .      S
C734  H817  1.068 .      S
C735  H818  1.071 .      S
C736  H819  1.070 .      S
C737  H820  1.075 .      S
C739  N247  1.451 .      S
C739  H821  1.106 .      S
C739  H822  1.098 .      S
C739  H823  1.108 .      S
N247  C740  1.454 1_554  S
N247  H824  1.041 .      S
C740  N247  1.454 1_556  S
C740  C741  1.475 .      S
C740  H825  1.102 1_556  S
C740  H826  1.100 .      S
C743  H827  1.065 .      S
C744  H828  1.072 .      S
C745  H829  1.063 .      S
C746  H830  1.067 .      S
N249  Zn8   2.095 1_556  S
H825  C740  1.102 1_554  S
C748  N250  1.453 .      S
C748  H831  1.109 .      S
C748  H832  1.109 .      S
C748  H833  1.109 .      S
N250  C749  1.453 .      S
N250  H834  1.044 .      S
C749  C750  1.485 .      S
C749  H835  1.109 .      S
C749  H836  1.108 .      S
C752  H837  1.061 .      S
C753  H838  1.076 1_655  S
C754  H839  1.065 1_655  S
C755  H840  1.018 .      S
H838  C753  1.076 1_455  S
H839  C754  1.065 1_455  S
C757  N253  1.443 1_455  S
C757  H841  1.108 1_455  S
C757  H842  1.106 .      S
C757  H843  1.107 .      S
N253  C757  1.443 1_655  S
N253  C758  1.442 1_655  S
N253  H844  1.044 .      S
C758  N253  1.442 1_455  S
C758  C759  1.486 .      S
C758  H845  1.107 .      S
C758  H846  1.105 .      S
N254  Zn41  2.188 1_455  S
C761  H847  1.063 1_455  S
C762  H848  1.045 .      S
C763  H849  1.069 .      S
C764  H850  1.061 .      S
H841  C757  1.108 1_655  S
H847  C761  1.063 1_655  S
C766  N256  1.454 .      S
C766  H851  1.100 .      S
C766  H852  1.102 .      S
C766  H853  1.106 .      S
N256  C767  1.447 .      S
N256  H854  1.039 .      S
C767  C768  1.469 .      S
C767  H855  1.096 .      S
C767  H856  1.106 .      S
C770  H857  1.074 .      S
C771  H858  1.081 .      S
C772  H859  1.081 .      S
C773  H860  1.069 .      S
C775  N259  1.434 .      S
C775  H861  1.102 .      S
C775  H862  1.096 .      S
C775  H863  1.083 .      S
N259  C776  1.435 .      S
N259  H864  1.039 .      S
C776  C777  1.467 .      S
C776  H865  1.088 .      S
C776  H866  1.091 .      S
C779  H867  1.080 .      S
C780  H868  1.075 .      S
C781  H869  1.079 .      S
C782  H870  1.067 .      S
C784  N262  1.447 .      S
C784  H871  1.107 .      S
C784  H872  1.105 .      S
C784  H873  1.098 .      S
N262  C785  1.453 1_655  S
N262  H874  1.039 .      S
C785  N262  1.453 1_455  S
C785  C786  1.479 .      S
C785  H875  1.106 .      S
C785  H876  1.101 .      S
C788  H877  1.041 .      S
C789  H878  1.071 .      S
C790  H879  1.081 .      S
C791  H880  1.065 1_455  S
H880  C791  1.065 1_655  S
C793  N265  1.452 .      S
C793  H881  1.108 .      S
C793  H882  1.106 .      S
C793  H883  1.107 .      S
N265  C794  1.437 .      S
N265  H884  1.045 .      S
C794  C795  1.483 .      S
C794  H885  1.089 1_455  S
C794  H886  1.100 .      S
C797  H887  1.059 .      S
C798  H888  1.081 .      S
C799  H889  1.081 .      S
C800  H890  1.076 .      S
H885  C794  1.089 1_655  S
C802  N268  1.454 .      S
C802  H891  1.109 .      S
C802  H892  1.110 .      S
C802  H893  1.110 .      S
N268  C803  1.456 .      S
N268  H894  1.041 .      S
C803  C804  1.510 .      S
C803  H895  1.086 .      S
C803  H896  1.103 .      S
C806  H897  1.056 .      S
C807  H898  1.081 .      S
C808  H899  1.081 .      S
C809  H900  1.070 .      S
C811  N271  1.452 .      S
C811  H901  1.106 .      S
C811  H902  1.095 .      S
C811  H903  1.104 .      S
N271  C812  1.435 .      S
N271  H904  1.035 .      S
C812  C813  1.463 .      S
C812  H905  1.101 .      S
C812  H906  1.104 .      S
C815  H907  1.060 .      S
C816  H908  1.079 .      S
C817  H909  1.081 .      S
C818  H910  1.079 .      S
C820  N274  1.454 .      S
C820  H911  1.108 .      S
C820  H912  1.103 .      S
C820  H913  1.108 .      S
N274  C821  1.451 .      S
N274  H914  1.043 .      S
C821  C822  1.483 .      S
C821  H915  1.105 .      S
C821  H916  1.103 .      S
C824  H917  1.077 .      S
C825  H918  1.061 .      S
C826  H919  1.072 1_655  S
C827  H920  1.067 .      S
N276  Zn12  2.140 1_565  S
H919  C826  1.072 1_455  S
C829  N277  1.442 .      S
C829  H921  1.102 .      S
C829  H922  1.099 .      S
C829  H923  1.090 .      S
N277  C830  1.429 .      S
N277  H924  1.030 .      S
C830  C831  1.460 .      S
C830  H925  1.103 .      S
C830  H926  1.095 .      S
C833  H927  1.070 .      S
C834  H928  1.081 .      S
C835  H929  1.081 .      S
C836  H930  1.078 .      S
C838  N280  1.449 .      S
C838  H931  1.094 .      S
C838  H932  1.103 .      S
C838  H933  1.097 .      S
N280  C839  1.440 .      S
N280  H934  1.044 .      S
C839  C840  1.453 .      S
C839  H935  1.069 .      S
C839  H936  1.091 .      S
C842  H937  1.079 .      S
C843  H938  1.081 .      S
C844  H939  1.081 .      S
C845  H940  1.069 .      S
C847  N283  1.433 .      S
C847  H941  1.099 .      S
C847  H942  1.102 .      S
C847  H943  1.102 .      S
N283  C848  1.437 .      S
N283  H944  1.040 .      S
C848  C849  1.456 .      S
C848  H945  1.081 .      S
C848  H946  1.088 .      S
C851  H947  1.075 .      S
C852  H948  1.081 .      S
C853  H949  1.081 .      S
C854  H950  1.078 .      S
C856  N286  1.421 .      S
C856  H951  1.093 1_455  S
C856  H952  1.104 1_455  S
C856  H953  1.086 1_455  S
N286  C857  1.441 .      S
N286  H954  1.045 .      S
C857  C858  1.456 .      S
C857  H955  1.107 .      S
C857  H956  1.094 .      S
C860  H957  1.049 .      S
C861  H958  1.055 .      S
C862  H959  1.079 .      S
C863  H960  1.047 .      S
H951  C856  1.093 1_655  S
H952  C856  1.104 1_655  S
H953  C856  1.086 1_655  S
C3    N2    1.405 .      A
C3    N3    1.365 .      A
N2    C4    1.353 1_556  A
C4    N2    1.353 1_554  A
C4    C5    1.375 .      A
C4    C9    1.366 1_554  A
C5    C6    1.385 .      A
C6    C7    1.389 .      A
C7    C8    1.382 1_554  A
C8    C7    1.382 1_556  A
C8    C9    1.371 .      A
C9    C4    1.366 1_556  A
C9    N3    1.340 .      A
C12   N5    1.388 .      A
C12   N6    1.377 .      A
N5    C13   1.329 1_554  A
C13   N5    1.329 1_556  A
C13   C14   1.370 .      A
C13   C18   1.345 .      A
C14   C15   1.381 .      A
C15   C16   1.386 .      A
C16   C17   1.388 .      A
C17   C18   1.340 .      A
C18   N6    1.342 1_556  A
N6    C18   1.342 1_554  A
C21   N8    1.377 .      A
C21   N9    1.386 .      A
N8    C22   1.349 .      A
C22   C23   1.374 .      A
C22   C27   1.367 .      A
C23   C24   1.386 .      A
C24   C25   1.390 .      A
C25   C26   1.383 .      A
C26   C27   1.373 .      A
C27   N9    1.346 .      A
C30   N11   1.377 .      A
C30   N12   1.384 .      A
N11   C31   1.343 .      A
C31   C32   1.367 .      A
C31   C36   1.357 .      A
C32   C33   1.382 .      A
C33   C34   1.388 .      A
C34   C35   1.384 .      A
C35   C36   1.364 .      A
C36   N12   1.343 .      A
C39   N14   1.374 .      A
C39   N15   1.370 .      A
N14   C40   1.352 .      A
C40   C41   1.372 .      A
C40   C45   1.361 .      A
C41   C42   1.386 .      A
C42   C43   1.391 .      A
C43   C44   1.383 .      A
C44   C45   1.369 .      A
C45   N15   1.336 .      A
C48   N17   1.386 .      A
C48   N18   1.394 .      A
N17   C49   1.344 .      A
C49   C50   1.375 .      A
C49   C54   1.365 .      A
C50   C51   1.380 .      A
C51   C52   1.387 .      A
C52   C53   1.384 .      A
C53   C54   1.374 .      A
C54   N18   1.358 .      A
C57   N20   1.395 .      A
C57   N21   1.391 .      A
N20   C58   1.341 .      A
C58   C59   1.364 .      A
C58   C63   1.349 .      A
C59   C60   1.373 .      A
C60   C61   1.387 .      A
C61   C62   1.380 .      A
C62   C63   1.366 .      A
C63   N21   1.341 .      A
C66   N23   1.381 .      A
C66   N24   1.389 .      A
N23   C67   1.333 .      A
C67   C68   1.369 1_545  A
C67   C72   1.372 .      A
C68   C67   1.369 1_565  A
C68   C69   1.378 .      A
C69   C70   1.386 .      A
C70   C71   1.384 .      A
C71   C72   1.371 1_565  A
C72   C71   1.371 1_545  A
C72   N24   1.367 .      A
C75   N26   1.389 .      A
C75   N27   1.388 .      A
N26   C76   1.344 .      A
C76   C77   1.370 .      A
C76   C81   1.371 .      A
C77   C78   1.382 .      A
C78   C79   1.386 .      A
C79   C80   1.384 .      A
C80   C81   1.373 .      A
C81   N27   1.356 .      A
C84   N29   1.374 .      A
C84   N30   1.384 .      A
N29   C85   1.345 .      A
C85   C86   1.362 .      A
C85   C90   1.367 .      A
C86   C87   1.377 .      A
C87   C88   1.392 .      A
C88   C89   1.371 .      A
C89   C90   1.365 .      A
C90   N30   1.332 .      A
C93   N32   1.403 .      A
C93   N33   1.375 .      A
N32   C94   1.332 .      A
C94   C95   1.349 1_545  A
C94   C99   1.347 .      A
C95   C94   1.349 1_565  A
C95   C96   1.366 .      A
C96   C97   1.361 1_565  A
C97   C96   1.361 1_545  A
C97   C98   1.375 .      A
C98   C99   1.350 .      A
C99   N33   1.332 .      A
C102  N35   1.388 .      A
C102  N36   1.385 .      A
N35   C103  1.341 .      A
C103  C104  1.371 .      A
C103  C108  1.348 .      A
C104  C105  1.380 .      A
C105  C106  1.388 .      A
C106  C107  1.377 .      A
C107  C108  1.349 .      A
C108  N36   1.339 .      A
C111  N38   1.383 .      A
C111  N39   1.384 .      A
N38   C112  1.327 .      A
C112  C113  1.363 .      A
C112  C117  1.350 .      A
C113  C114  1.375 .      A
C114  C115  1.381 .      A
C115  C116  1.394 .      A
C116  C117  1.331 .      A
C117  N39   1.345 .      A
C120  N41   1.378 .      A
C120  N42   1.386 .      A
N41   C121  1.343 .      A
C121  C122  1.372 .      A
C121  C126  1.339 .      A
C122  C123  1.382 .      A
C123  C124  1.384 .      A
C124  C125  1.381 .      A
C125  C126  1.356 .      A
C126  N42   1.337 .      A
C129  N44   1.387 .      A
C129  N45   1.385 .      A
N44   C130  1.362 .      A
C130  C131  1.372 .      A
C130  C135  1.361 .      A
C131  C132  1.382 .      A
C132  C133  1.378 .      A
C133  C134  1.370 .      A
C134  C135  1.353 .      A
C135  N45   1.332 .      A
C138  N47   1.369 .      A
C138  N48   1.390 1_455  A
N47   C139  1.343 .      A
C139  C140  1.356 .      A
C139  C144  1.348 1_455  A
C140  C141  1.362 1_545  A
C141  C140  1.362 1_565  A
C141  C142  1.365 1_455  A
C142  C141  1.365 1_655  A
C142  C143  1.367 1_565  A
C143  C142  1.367 1_545  A
C143  C144  1.378 .      A
C144  C139  1.348 1_655  A
C144  N48   1.348 .      A
N48   C138  1.390 1_655  A
C147  N50   1.383 .      A
C147  N51   1.381 .      A
N50   C148  1.344 .      A
C148  C149  1.370 .      A
C148  C153  1.354 .      A
C149  C150  1.384 1_554  A
C150  C149  1.384 1_556  A
C150  C151  1.388 .      A
C151  C152  1.384 .      A
C152  C153  1.374 1_556  A
C153  C152  1.374 1_554  A
C153  N51   1.348 .      A
C156  N53   1.365 .      A
C156  N54   1.373 .      A
N53   C157  1.355 .      A
C157  C158  1.371 1_556  A
C157  C162  1.357 .      A
C158  C157  1.371 1_554  A
C158  C159  1.384 .      A
C159  C160  1.384 1_554  A
C160  C159  1.384 1_556  A
C160  C161  1.380 .      A
C161  C162  1.368 .      A
C162  N54   1.339 .      A
C165  N56   1.365 .      A
C165  N57   1.374 .      A
N56   C166  1.344 .      A
C166  C167  1.374 .      A
C166  C171  1.366 .      A
C167  C168  1.382 .      A
C168  C169  1.388 .      A
C169  C170  1.383 .      A
C170  C171  1.376 .      A
C171  N57   1.357 .      A
C174  N59   1.381 .      A
C174  N60   1.382 .      A
N59   C175  1.351 .      A
C175  C176  1.374 .      A
C175  C180  1.366 .      A
C176  C177  1.380 .      A
C177  C178  1.384 .      A
C178  C179  1.383 .      A
C179  C180  1.372 .      A
C180  N60   1.349 .      A
C183  N62   1.384 .      A
C183  N63   1.376 .      A
N62   C184  1.354 .      A
C184  C185  1.377 .      A
C184  C189  1.361 .      A
C185  C186  1.378 .      A
C186  C187  1.376 .      A
C187  C188  1.376 .      A
C188  C189  1.375 .      A
C189  N63   1.353 .      A
C192  N65   1.390 .      A
C192  N66   1.373 .      A
N65   C193  1.348 .      A
C193  C194  1.368 .      A
C193  C198  1.368 .      A
C194  C195  1.383 .      A
C195  C196  1.389 .      A
C196  C197  1.383 .      A
C197  C198  1.372 .      A
C198  N66   1.351 .      A
C201  N68   1.384 .      A
C201  N69   1.378 .      A
N68   C202  1.345 .      A
C202  C203  1.332 .      A
C202  C207  1.350 .      A
C203  C204  1.375 .      A
C204  C205  1.373 .      A
C205  C206  1.367 .      A
C206  C207  1.382 .      A
C207  N69   1.333 .      A
C210  N71   1.382 .      A
C210  N72   1.398 .      A
N71   C211  1.330 .      A
C211  C212  1.343 .      A
C211  C216  1.363 .      A
C212  C213  1.357 .      A
C213  C214  1.383 .      A
C214  C215  1.378 .      A
C215  C216  1.362 .      A
C216  N72   1.341 .      A
C219  N74   1.387 .      A
C219  N75   1.391 .      A
N74   C220  1.362 .      A
C220  C221  1.372 .      A
C220  C225  1.366 .      A
C221  C222  1.385 .      A
C222  C223  1.386 .      A
C223  C224  1.379 .      A
C224  C225  1.373 .      A
C225  N75   1.337 .      A
C228  N77   1.387 .      A
C228  N78   1.372 .      A
N77   C229  1.342 .      A
C229  C230  1.368 .      A
C229  C234  1.369 .      A
C230  C231  1.386 .      A
C231  C232  1.390 .      A
C232  C233  1.384 .      A
C233  C234  1.375 .      A
C234  N78   1.350 .      A
C237  N80   1.396 .      A
C237  N81   1.393 .      A
N80   C238  1.344 .      A
C238  C239  1.367 .      A
C238  C243  1.371 .      A
C239  C240  1.383 .      A
C240  C241  1.390 .      A
C241  C242  1.386 .      A
C242  C243  1.370 .      A
C243  N81   1.349 .      A
C246  N83   1.394 .      A
C246  N84   1.367 .      A
N83   C247  1.339 .      A
C247  C248  1.370 .      A
C247  C252  1.363 .      A
C248  C249  1.375 .      A
C249  C250  1.379 1_556  A
C250  C249  1.379 1_554  A
C250  C251  1.382 .      A
C251  C252  1.391 1_554  A
C252  C251  1.391 1_556  A
C252  N84   1.370 .      A
C255  N86   1.374 .      A
C255  N87   1.374 .      A
N86   C256  1.354 .      A
C256  C257  1.361 1_554  A
C256  C261  1.362 .      A
C257  C256  1.361 1_556  A
C257  C258  1.376 .      A
C258  C259  1.375 .      A
C259  C260  1.376 .      A
C260  C261  1.373 1_556  A
C261  C260  1.373 1_554  A
C261  N87   1.346 .      A
C264  N89   1.394 .      A
C264  N90   1.368 .      A
N89   C265  1.335 .      A
C265  C266  1.366 .      A
C265  C270  1.341 .      A
C266  C267  1.372 .      A
C267  C268  1.373 .      A
C268  C269  1.383 .      A
C269  C270  1.357 .      A
C270  N90   1.351 .      A
C273  N92   1.379 .      A
C273  N93   1.377 .      A
N92   C274  1.349 .      A
C274  C275  1.379 .      A
C274  C279  1.358 .      A
C275  C276  1.382 .      A
C276  C277  1.383 .      A
C277  C278  1.380 .      A
C278  C279  1.356 .      A
C279  N93   1.343 .      A
C282  N95   1.386 .      A
C282  N96   1.406 .      A
N95   C283  1.349 .      A
C283  C284  1.361 .      A
C283  C288  1.356 .      A
C284  C285  1.355 .      A
C285  C286  1.368 .      A
C286  C287  1.370 .      A
C287  C288  1.376 .      A
C288  N96   1.343 .      A
C291  N98   1.381 .      A
C291  N99   1.375 .      A
N98   C292  1.340 .      A
C292  C293  1.376 .      A
C292  C297  1.362 .      A
C293  C294  1.378 .      A
C294  C295  1.382 .      A
C295  C296  1.382 .      A
C296  C297  1.362 .      A
C297  N99   1.359 .      A
C300  N101  1.394 .      A
C300  N102  1.381 .      A
N101  C301  1.332 .      A
C301  C302  1.362 .      A
C301  C306  1.326 .      A
C302  C303  1.368 .      A
C303  C304  1.359 .      A
C304  C305  1.372 .      A
C305  C306  1.356 .      A
C306  N102  1.355 .      A
C309  N104  1.386 .      A
C309  N105  1.385 .      A
N104  C310  1.348 .      A
C310  C311  1.371 .      A
C310  C315  1.376 .      A
C311  C312  1.381 .      A
C312  C313  1.384 .      A
C313  C314  1.381 .      A
C314  C315  1.376 .      A
C315  N105  1.355 .      A
C318  N107  1.373 .      A
C318  N108  1.363 .      A
N107  C319  1.369 .      A
C319  C320  1.384 .      A
C319  C324  1.374 .      A
C320  C321  1.384 .      A
C321  C322  1.386 .      A
C322  C323  1.379 .      A
C323  C324  1.368 .      A
C324  N108  1.339 .      A
C327  N110  1.370 .      A
C327  N111  1.402 .      A
N110  C328  1.331 .      A
C328  C329  1.369 1_554  A
C328  C333  1.341 .      A
C329  C328  1.369 1_556  A
C329  C330  1.385 .      A
C330  C331  1.383 1_556  A
C331  C330  1.383 1_554  A
C331  C332  1.376 .      A
C332  C333  1.358 .      A
C333  N111  1.348 .      A
C336  N113  1.407 .      A
C336  N114  1.356 .      A
N113  C337  1.347 .      A
C337  C338  1.355 .      A
C337  C342  1.351 .      A
C338  C339  1.376 .      A
C339  C340  1.380 .      A
C340  C341  1.372 .      A
C341  C342  1.377 .      A
C342  N114  1.340 .      A
C345  N116  1.385 .      A
C345  N117  1.380 1_556  A
N116  C346  1.351 .      A
C346  C347  1.374 .      A
C346  C351  1.374 1_556  A
C347  C348  1.384 .      A
C348  C349  1.389 1_556  A
C349  C348  1.389 1_554  A
C349  C350  1.383 .      A
C350  C351  1.374 .      A
C351  C346  1.374 1_554  A
C351  N117  1.349 .      A
N117  C345  1.380 1_554  A
C354  N119  1.383 .      A
C354  N120  1.396 .      A
N119  C355  1.342 .      A
C355  C356  1.356 .      A
C355  C360  1.355 .      A
C356  C357  1.374 .      A
C357  C358  1.368 .      A
C358  C359  1.371 .      A
C359  C360  1.364 .      A
C360  N120  1.336 .      A
C363  N122  1.378 .      A
C363  N123  1.371 .      A
N122  C364  1.351 .      A
C364  C365  1.375 .      A
C364  C369  1.373 .      A
C365  C366  1.391 .      A
C366  C367  1.395 .      A
C367  C368  1.388 .      A
C368  C369  1.375 .      A
C369  N123  1.345 .      A
C372  N125  1.393 .      A
C372  N126  1.390 1_455  A
N125  C373  1.364 .      A
C373  C374  1.380 .      A
C373  C378  1.376 1_455  A
C374  C375  1.383 .      A
C375  C376  1.387 1_455  A
C376  C375  1.387 1_655  A
C376  C377  1.381 .      A
C377  C378  1.371 .      A
C378  C373  1.376 1_655  A
C378  N126  1.343 .      A
N126  C372  1.390 1_655  A
C381  N128  1.371 .      A
C381  N129  1.367 .      A
N128  C382  1.346 .      A
C382  C383  1.383 .      A
C382  C387  1.345 .      A
C383  C384  1.373 .      A
C384  C385  1.375 .      A
C385  C386  1.375 1_565  A
C386  C385  1.375 1_545  A
C386  C387  1.370 1_545  A
C387  C386  1.370 1_565  A
C387  N129  1.351 .      A
C390  N131  1.381 .      A
C390  N132  1.373 .      A
N131  C391  1.343 .      A
C391  C392  1.373 .      A
C391  C396  1.366 .      A
C392  C393  1.377 .      A
C393  C394  1.384 .      A
C394  C395  1.384 .      A
C395  C396  1.386 .      A
C396  N132  1.367 .      A
C399  N134  1.394 .      A
C399  N135  1.376 .      A
N134  C400  1.334 .      A
C400  C401  1.358 .      A
C400  C405  1.361 .      A
C401  C402  1.371 .      A
C402  C403  1.375 .      A
C403  C404  1.379 .      A
C404  C405  1.381 .      A
C405  N135  1.363 .      A
C408  N137  1.396 .      A
C408  N138  1.394 .      A
N137  C409  1.339 .      A
C409  C410  1.359 .      A
C409  C414  1.345 .      A
C410  C411  1.360 .      A
C411  C412  1.355 .      A
C412  C413  1.348 .      A
C413  C414  1.353 .      A
C414  N138  1.328 .      A
C417  N140  1.374 .      A
C417  N141  1.376 .      A
N140  C418  1.340 .      A
C418  C419  1.374 .      A
C418  C423  1.355 .      A
C419  C420  1.378 .      A
C420  C421  1.383 .      A
C421  C422  1.376 .      A
C422  C423  1.361 .      A
C423  N141  1.347 .      A
C426  N143  1.404 .      A
C426  N144  1.390 .      A
N143  C427  1.345 .      A
C427  C428  1.368 .      A
C427  C432  1.364 .      A
C428  C429  1.382 .      A
C429  C430  1.390 .      A
C430  C431  1.383 .      A
C431  C432  1.368 .      A
C432  N144  1.346 .      A
C435  N146  1.377 1_545  A
C435  N147  1.393 .      A
N146  C435  1.377 1_565  A
N146  C436  1.345 1_565  A
C436  N146  1.345 1_545  A
C436  C437  1.369 .      A
C436  C441  1.367 .      A
C437  C438  1.377 .      A
C438  C439  1.385 .      A
C439  C440  1.376 .      A
C440  C441  1.364 .      A
C441  N147  1.345 .      A
C444  N149  1.391 .      A
C444  N150  1.395 1_565  A
N149  C445  1.350 1_565  A
C445  N149  1.350 1_545  A
C445  C446  1.371 .      A
C445  C450  1.372 .      A
C446  C447  1.383 .      A
C447  C448  1.389 .      A
C448  C449  1.384 .      A
C449  C450  1.373 .      A
C450  N150  1.349 .      A
N150  C444  1.395 1_545  A
C453  N152  1.376 .      A
C453  N153  1.394 .      A
N152  C454  1.351 .      A
C454  C455  1.377 .      A
C454  C459  1.363 .      A
C455  C456  1.383 .      A
C456  C457  1.387 .      A
C457  C458  1.383 .      A
C458  C459  1.374 .      A
C459  N153  1.348 .      A
C462  N155  1.375 .      A
C462  N156  1.382 .      A
N155  C463  1.370 .      A
C463  C464  1.389 .      A
C463  C468  1.365 .      A
C464  C465  1.378 .      A
C465  C466  1.376 .      A
C466  C467  1.377 .      A
C467  C468  1.363 .      A
C468  N156  1.338 .      A
C471  N158  1.385 .      A
C471  N159  1.369 .      A
N158  C472  1.351 .      A
C472  C473  1.376 .      A
C472  C477  1.361 .      A
C473  C474  1.375 .      A
C474  C475  1.378 .      A
C475  C476  1.383 .      A
C476  C477  1.362 .      A
C477  N159  1.344 .      A
C480  N161  1.378 1_545  A
C480  N162  1.366 .      A
N161  C480  1.378 1_565  A
N161  C481  1.350 1_565  A
C481  N161  1.350 1_545  A
C481  C482  1.370 1_546  A
C481  C486  1.362 .      A
C482  C481  1.370 1_564  A
C482  C483  1.382 1_565  A
C483  C482  1.382 1_545  A
C483  C484  1.384 1_554  A
C484  C483  1.384 1_556  A
C484  C485  1.381 .      A
C485  C486  1.380 .      A
C486  N162  1.351 .      A
C489  N164  1.389 .      A
C489  N165  1.377 .      A
N164  C490  1.354 .      A
C490  C491  1.371 .      A
C490  C495  1.351 .      A
C491  C492  1.380 .      A
C492  C493  1.377 1_554  A
C493  C492  1.377 1_556  A
C493  C494  1.378 1_556  A
C494  C493  1.378 1_554  A
C494  C495  1.358 .      A
C495  N165  1.338 .      A
C498  N167  1.375 .      A
C498  N168  1.379 .      A
N167  C499  1.350 .      A
C499  C500  1.367 1_545  A
C499  C504  1.363 .      A
C500  C499  1.367 1_565  A
C500  C501  1.386 .      A
C501  C502  1.389 .      A
C502  C503  1.383 1_565  A
C503  C502  1.383 1_545  A
C503  C504  1.375 .      A
C504  N168  1.345 .      A
C507  N170  1.408 .      A
C507  N171  1.373 1_565  A
N170  C508  1.349 .      A
C508  C509  1.373 .      A
C508  C513  1.367 1_565  A
C509  C510  1.376 1_565  A
C510  C509  1.376 1_545  A
C510  C511  1.378 .      A
C511  C512  1.380 .      A
C512  C513  1.380 .      A
C513  C508  1.367 1_545  A
C513  N171  1.358 .      A
N171  C507  1.373 1_545  A
C516  N173  1.368 .      A
C516  N174  1.368 .      A
N173  C517  1.334 .      A
C517  C518  1.365 .      A
C517  C522  1.354 .      A
C518  C519  1.372 .      A
C519  C520  1.379 .      A
C520  C521  1.391 .      A
C521  C522  1.364 .      A
C522  N174  1.356 .      A
C525  N176  1.379 .      A
C525  N177  1.405 .      A
N176  C526  1.325 .      A
C526  C527  1.336 .      A
C526  C531  1.346 .      A
C527  C528  1.362 .      A
C528  C529  1.359 .      A
C529  C530  1.375 .      A
C530  C531  1.347 .      A
C531  N177  1.339 .      A
C534  N179  1.382 .      A
C534  N180  1.385 .      A
N179  C535  1.347 .      A
C535  C536  1.374 .      A
C535  C540  1.363 .      A
C536  C537  1.382 .      A
C537  C538  1.388 .      A
C538  C539  1.383 .      A
C539  C540  1.374 .      A
C540  N180  1.349 .      A
C543  N182  1.384 .      A
C543  N183  1.406 .      A
N182  C544  1.345 .      A
C544  C545  1.373 .      A
C544  C549  1.372 .      A
C545  C546  1.384 .      A
C546  C547  1.391 .      A
C547  C548  1.386 .      A
C548  C549  1.371 .      A
C549  N183  1.353 .      A
C552  N185  1.373 .      A
C552  N186  1.387 .      A
N185  C553  1.327 .      A
C553  C554  1.361 .      A
C553  C558  1.356 .      A
C554  C555  1.368 .      A
C555  C556  1.380 .      A
C556  C557  1.378 .      A
C557  C558  1.367 .      A
C558  N186  1.354 .      A
C561  N188  1.389 .      A
C561  N189  1.387 .      A
N188  C562  1.350 .      A
C562  C563  1.378 .      A
C562  C567  1.350 .      A
C563  C564  1.371 .      A
C564  C565  1.370 .      A
C565  C566  1.375 .      A
C566  C567  1.355 .      A
C567  N189  1.347 .      A
C570  N191  1.382 .      A
C570  N192  1.391 .      A
N191  C571  1.351 .      A
C571  C572  1.365 .      A
C571  C576  1.368 .      A
C572  C573  1.373 .      A
C573  C574  1.378 .      A
C574  C575  1.379 .      A
C575  C576  1.361 .      A
C576  N192  1.338 .      A
C579  N194  1.390 .      A
C579  N195  1.383 .      A
N194  C580  1.354 .      A
C580  C581  1.348 .      A
C580  C585  1.339 .      A
C581  C582  1.372 .      A
C582  C583  1.375 .      A
C583  C584  1.368 .      A
C584  C585  1.358 .      A
C585  N195  1.314 .      A
C588  N197  1.387 .      A
C588  N198  1.406 .      A
N197  C589  1.320 .      A
C589  C590  1.365 .      A
C589  C594  1.356 .      A
C590  C591  1.360 .      A
C591  C592  1.363 .      A
C592  C593  1.365 .      A
C593  C594  1.337 .      A
C594  N198  1.351 .      A
C597  N200  1.380 .      A
C597  N201  1.389 1_455  A
N200  C598  1.363 .      A
C598  C599  1.380 .      A
C598  C603  1.370 1_455  A
C599  C600  1.384 .      A
C600  C601  1.384 1_455  A
C601  C600  1.384 1_655  A
C601  C602  1.378 .      A
C602  C603  1.375 .      A
C603  C598  1.370 1_655  A
C603  N201  1.344 .      A
N201  C597  1.389 1_655  A
C606  N203  1.388 .      A
C606  N204  1.385 .      A
N203  C607  1.346 .      A
C607  C608  1.369 .      A
C607  C612  1.363 .      A
C608  C609  1.382 .      A
C609  C610  1.386 .      A
C610  C611  1.382 .      A
C611  C612  1.378 .      A
C612  N204  1.351 .      A
C615  N206  1.420 .      A
C615  N207  1.394 .      A
N206  C616  1.353 .      A
C616  C617  1.361 .      A
C616  C621  1.366 .      A
C617  C618  1.381 .      A
C618  C619  1.383 .      A
C619  C620  1.381 .      A
C620  C621  1.366 .      A
C621  N207  1.339 .      A
C624  N209  1.380 .      A
C624  N210  1.403 .      A
N209  C625  1.352 .      A
C625  C626  1.376 .      A
C625  C630  1.374 .      A
C626  C627  1.383 .      A
C627  C628  1.389 .      A
C628  C629  1.384 .      A
C629  C630  1.372 .      A
C630  N210  1.349 .      A
C633  N212  1.370 .      A
C633  N213  1.388 .      A
N212  C634  1.358 .      A
C634  C635  1.374 .      A
C634  C639  1.367 .      A
C635  C636  1.382 .      A
C636  C637  1.384 .      A
C637  C638  1.379 .      A
C638  C639  1.370 .      A
C639  N213  1.343 .      A
C642  N215  1.394 .      A
C642  N216  1.383 .      A
N215  C643  1.342 .      A
C643  C644  1.340 .      A
C643  C648  1.342 .      A
C644  C645  1.364 1_545  A
C645  C644  1.364 1_565  A
C645  C646  1.366 .      A
C646  C647  1.360 1_565  A
C647  C646  1.360 1_545  A
C647  C648  1.360 .      A
C648  N216  1.318 .      A
C651  N218  1.365 .      A
C651  N219  1.382 .      A
N218  C652  1.336 .      A
C652  C653  1.363 .      A
C652  C657  1.360 .      A
C653  C654  1.380 .      A
C654  C655  1.387 .      A
C655  C656  1.385 .      A
C656  C657  1.379 .      A
C657  N219  1.359 .      A
C660  N221  1.394 .      A
C660  N222  1.391 .      A
N221  C661  1.345 .      A
C661  C662  1.373 .      A
C661  C666  1.372 .      A
C662  C663  1.382 .      A
C663  C664  1.388 .      A
C664  C665  1.384 .      A
C665  C666  1.368 .      A
C666  N222  1.353 .      A
C669  N224  1.368 .      A
C669  N225  1.402 .      A
N224  C670  1.347 .      A
C670  C671  1.373 .      A
C670  C675  1.368 .      A
C671  C672  1.382 .      A
C672  C673  1.386 .      A
C673  C674  1.382 .      A
C674  C675  1.365 .      A
C675  N225  1.348 .      A
C678  N227  1.398 .      A
C678  N228  1.374 .      A
N227  C679  1.360 .      A
C679  C680  1.375 .      A
C679  C684  1.372 .      A
C680  C681  1.385 .      A
C681  C682  1.390 .      A
C682  C683  1.382 .      A
C683  C684  1.371 .      A
C684  N228  1.341 .      A
C687  N230  1.396 .      A
C687  N231  1.393 .      A
N230  C688  1.349 .      A
C688  C689  1.366 .      A
C688  C693  1.375 .      A
C689  C690  1.384 .      A
C690  C691  1.390 .      A
C691  C692  1.386 .      A
C692  C693  1.365 .      A
C693  N231  1.343 .      A
C696  N233  1.392 .      A
C696  N234  1.389 .      A
N233  C697  1.332 .      A
C697  C698  1.355 .      A
C697  C702  1.347 .      A
C698  C699  1.369 1_565  A
C699  C698  1.369 1_545  A
C699  C700  1.377 1_545  A
C700  C699  1.377 1_565  A
C700  C701  1.351 .      A
C701  C702  1.348 .      A
C702  N234  1.320 .      A
C705  N236  1.401 .      A
C705  N237  1.378 .      A
N236  C706  1.340 .      A
C706  C707  1.373 .      A
C706  C711  1.362 .      A
C707  C708  1.384 .      A
C708  C709  1.385 .      A
C709  C710  1.381 .      A
C710  C711  1.365 .      A
C711  N237  1.354 .      A
C714  N239  1.386 .      A
C714  N240  1.399 1_455  A
N239  C715  1.338 .      A
C715  C716  1.365 .      A
C715  C720  1.365 .      A
C716  C717  1.381 .      A
C717  C718  1.387 .      A
C718  C719  1.384 .      A
C719  C720  1.371 .      A
C720  N240  1.351 1_455  A
N240  C714  1.399 1_655  A
N240  C720  1.351 1_655  A
C723  N242  1.377 .      A
C723  N243  1.379 .      A
N242  C724  1.340 .      A
C724  C725  1.362 .      A
C724  C729  1.364 .      A
C725  C726  1.376 .      A
C726  C727  1.380 .      A
C727  C728  1.382 .      A
C728  C729  1.359 .      A
C729  N243  1.349 .      A
C732  N245  1.388 .      A
C732  N246  1.386 .      A
N245  C733  1.319 .      A
C733  C734  1.325 .      A
C733  C738  1.324 .      A
C734  C735  1.352 .      A
C735  C736  1.390 .      A
C736  C737  1.378 .      A
C737  C738  1.346 .      A
C738  N246  1.321 .      A
C741  N248  1.384 .      A
C741  N249  1.384 .      A
N248  C742  1.327 .      A
C742  C743  1.353 .      A
C742  C747  1.355 .      A
C743  C744  1.359 .      A
C744  C745  1.375 .      A
C745  C746  1.377 .      A
C746  C747  1.369 .      A
C747  N249  1.350 .      A
C750  N251  1.387 .      A
C750  N252  1.385 .      A
N251  C751  1.334 .      A
C751  C752  1.374 .      A
C751  C756  1.326 .      A
C752  C753  1.372 .      A
C753  C754  1.376 .      A
C754  C755  1.352 .      A
C755  C756  1.317 .      A
C756  N252  1.329 .      A
C759  N254  1.396 .      A
C759  N255  1.393 .      A
N254  C760  1.363 .      A
C760  C761  1.374 .      A
C760  C765  1.331 .      A
C761  C762  1.355 .      A
C762  C763  1.349 .      A
C763  C764  1.357 .      A
C764  C765  1.350 .      A
C765  N255  1.315 .      A
C768  N257  1.392 .      A
C768  N258  1.387 .      A
N257  C769  1.347 .      A
C769  C770  1.370 .      A
C769  C774  1.368 .      A
C770  C771  1.383 .      A
C771  C772  1.388 .      A
C772  C773  1.384 .      A
C773  C774  1.371 .      A
C774  N258  1.349 .      A
C777  N260  1.370 .      A
C777  N261  1.399 .      A
N260  C778  1.329 .      A
C778  C779  1.364 .      A
C778  C783  1.364 .      A
C779  C780  1.375 .      A
C780  C781  1.386 .      A
C781  C782  1.378 .      A
C782  C783  1.365 .      A
C783  N261  1.355 .      A
C786  N263  1.384 .      A
C786  N264  1.380 1_455  A
N263  C787  1.367 .      A
C787  C788  1.377 .      A
C787  C792  1.343 .      A
C788  C789  1.376 .      A
C789  C790  1.365 .      A
C790  C791  1.367 .      A
C791  C792  1.361 .      A
C792  N264  1.331 1_455  A
N264  C786  1.380 1_655  A
N264  C792  1.331 1_655  A
C795  N266  1.386 .      A
C795  N267  1.386 1_465  A
N266  C796  1.348 .      A
C796  C797  1.356 .      A
C796  C801  1.362 1_565  A
C797  C798  1.382 .      A
C798  C799  1.387 1_465  A
C799  C798  1.387 1_645  A
C799  C800  1.383 .      A
C800  C801  1.376 1_655  A
C801  C796  1.362 1_545  A
C801  C800  1.376 1_455  A
C801  N267  1.343 1_455  A
N267  C795  1.386 1_645  A
N267  C801  1.343 1_655  A
C804  N269  1.388 .      A
C804  N270  1.387 .      A
N269  C805  1.346 .      A
C805  C806  1.357 .      A
C805  C810  1.354 .      A
C806  C807  1.382 .      A
C807  C808  1.384 .      A
C808  C809  1.381 .      A
C809  C810  1.373 .      A
C810  N270  1.341 .      A
C813  N272  1.383 .      A
C813  N273  1.378 .      A
N272  C814  1.358 .      A
C814  C815  1.369 .      A
C814  C819  1.365 .      A
C815  C816  1.379 .      A
C816  C817  1.387 .      A
C817  C818  1.373 .      A
C818  C819  1.368 .      A
C819  N273  1.335 .      A
C822  N275  1.397 .      A
C822  N276  1.397 .      A
N275  C823  1.330 .      A
C823  C824  1.356 .      A
C823  C828  1.355 .      A
C824  C825  1.369 1_565  A
C825  C824  1.369 1_545  A
C825  C826  1.379 .      A
C826  C827  1.342 .      A
C827  C828  1.349 1_545  A
C828  C827  1.349 1_565  A
C828  N276  1.330 .      A
C831  N278  1.414 .      A
C831  N279  1.366 .      A
N278  C832  1.359 .      A
C832  C833  1.378 .      A
C832  C837  1.375 .      A
C833  C834  1.383 .      A
C834  C835  1.386 .      A
C835  C836  1.380 .      A
C836  C837  1.373 .      A
C837  N279  1.347 .      A
C840  N281  1.395 .      A
C840  N282  1.388 .      A
N281  C841  1.345 .      A
C841  C842  1.370 .      A
C841  C846  1.376 .      A
C842  C843  1.383 .      A
C843  C844  1.391 .      A
C844  C845  1.386 .      A
C845  C846  1.368 .      A
C846  N282  1.355 .      A
C849  N284  1.385 1_556  A
C849  N285  1.384 .      A
N284  C849  1.385 1_554  A
N284  C850  1.350 .      A
C850  C851  1.371 .      A
C850  C855  1.373 1_554  A
C851  C852  1.383 .      A
C852  C853  1.390 1_554  A
C853  C852  1.390 1_556  A
C853  C854  1.385 .      A
C854  C855  1.374 .      A
C855  C850  1.373 1_556  A
C855  N285  1.352 .      A
C858  N287  1.389 .      A
C858  N288  1.381 .      A
N287  C859  1.364 .      A
C859  C860  1.372 .      A
C859  C864  1.350 .      A
C860  C861  1.381 1_556  A
C861  C860  1.381 1_554  A
C861  C862  1.364 .      A
C862  C863  1.354 1_554  A
C863  C862  1.354 1_556  A
C863  C864  1.358 .      A
C864  N288  1.325 .      A
