data_str_m1_o12038_AFI
_audit_creation_date              2015-10-01T06:40:06-0700
_symmetry_space_group_name_H-M    P1
_symmetry_Int_Tables_number       1
_space_group_crystal_system       triclinic
loop_
_symmetry_equiv_pos_as_xyz
  x,y,z
_cell_length_a                    18.7019237
_cell_length_b                    29.6200214
_cell_length_c                    29.8538645
_cell_angle_alpha                 61.2873865
_cell_angle_beta                  85.9394738
_cell_angle_gamma                 87.1454097
_cell_volume                      14465.3716344

loop_
_atom_site_label
_atom_site_type_symbol
_atom_site_description
_atom_site_fract_x
_atom_site_fract_y
_atom_site_fract_z
_atom_type_partial_charge
Zn1   Zn    Zn3+2 0.962818 0.776104 0.468423 0.000000
Zn2   Zn    Zn3+2 0.834704 0.558716 0.471624 0.000000
Zn3   Zn    Zn3+2 0.835891 0.889726 0.235299 0.000000
Zn4   Zn    Zn3+2 0.976788 0.099306 0.025085 0.000000
Zn5   Zn    Zn3+2 0.975929 0.348866 0.677450 0.000000
Zn6   Zn    Zn3+2 0.484230 0.698917 0.006024 0.000000
Zn7   Zn    Zn3+2 0.847517 0.683300 0.023987 0.000000
Zn8   Zn    Zn3+2 0.350229 0.568796 0.901312 0.000000
Zn9   Zn    Zn3+2 0.347327 0.689331 0.222499 0.000000
Zn10  Zn    Zn3+2 0.344100 0.905220 0.793116 0.000000
Zn11  Zn    Zn3+2 0.985985 0.555789 0.910452 0.000000
Zn12  Zn    Zn3+2 0.469826 0.349007 0.901285 0.000000
Zn13  Zn    Zn3+2 0.983619 0.886315 0.808050 0.000000
Zn14  Zn    Zn3+2 0.470687 0.773333 0.680639 0.000000
Zn15  Zn    Zn3+2 0.484366 0.115561 0.805458 0.000000
Zn16  Zn    Zn3+2 0.980762 0.670891 0.237071 0.000000
Zn17  Zn    Zn3+2 0.466186 0.900527 0.222897 0.000000
Zn18  Zn    Zn3+2 0.460306 0.564803 0.459160 0.000000
Zn19  Zn    Zn3+2 0.342243 0.351204 0.684130 0.000000
Zn20  Zn    Zn3+2 0.340974 0.119522 0.022679 0.000000
Zn21  Zn    Zn3+2 0.845351 0.763261 0.696135 0.000000
Zn22  Zn    Zn3+2 0.846456 0.345059 0.901796 0.000000
Zn23  Zn    Zn3+2 0.852010 0.108802 0.805823 0.000000
Zn24  Zn    Zn3+2 0.333174 0.782653 0.462390 0.000000
N1    N     N_2   0.613513 0.685436 0.590240 0.000000
C1    C     C_R   0.681503 0.679765 0.570072 0.000000
C2    C     C_R   0.704322 0.631941 0.577096 0.000000
C3    C     C_R   0.770739 0.626071 0.557790 0.000000
C4    C     C_R   0.809761 0.669293 0.525786 0.000000
C5    C     C_R   0.790585 0.715983 0.523282 0.000000
C6    C     C_R   0.726853 0.720941 0.546361 0.000000
C7    C     C_R   0.868797 0.665767 0.492868 0.000000
N2    N     N_R   0.877444 0.624012 0.481878 0.000000
C8    C     C_R   0.944038 0.632235 0.462341 0.000000
C9    C     C_R   0.983056 0.599630 0.450536 0.000000
C10   C     C_R   0.044910 0.617912 0.422368 0.000000
N3    N     N_2   0.081390 0.589582 0.401057 0.000000
C11   C     C_R   0.067645 0.665916 0.412281 0.000000
C12   C     C_R   0.030739 0.696504 0.428478 0.000000
C13   C     C_R   0.969212 0.678036 0.454764 0.000000
N4    N     N_R   0.924336 0.701841 0.473352 0.000000
H1    H     H_    0.577348 0.657984 0.596063 0.000000
H2    H     H_    0.594850 0.722426 0.576915 0.000000
H3    H     H_    0.669230 0.599425 0.595880 0.000000
H4    H     H_    0.786892 0.588779 0.561889 0.000000
H5    H     H_    0.822628 0.749622 0.500890 0.000000
H6    H     H_    0.711169 0.757802 0.543170 0.000000
H7    H     H_    0.964376 0.561992 0.461416 0.000000
H8    H     H_    0.103367 0.613116 0.365249 0.000000
H9    H     H_    0.051493 0.560566 0.402869 0.000000
H10   H     H_    0.118900 0.678085 0.398259 0.000000
H11   H     H_    0.049728 0.733392 0.420480 0.000000
N5    N     N_2   0.212528 0.462160 0.477155 0.000000
C14   C     C_R   0.143324 0.465097 0.497568 0.000000
C15   C     C_R   0.134949 0.466988 0.542577 0.000000
C16   C     C_R   0.067482 0.468466 0.563419 0.000000
C17   C     C_R   0.007476 0.470170 0.539138 0.000000
C18   C     C_R   0.016381 0.462976 0.496856 0.000000
C19   C     C_R   0.083524 0.461294 0.475530 0.000000
C20   C     C_R   0.936834 0.460674 0.566236 0.000000
N6    N     N_R   0.875726 0.482866 0.536813 0.000000
C21   C     C_R   0.837500 0.439888 0.552660 0.000000
C22   C     C_R   0.782481 0.434636 0.528266 0.000000
C23   C     C_R   0.772824 0.386751 0.532323 0.000000
N7    N     N_2   0.712823 0.377248 0.512805 0.000000
C24   C     C_R   0.818069 0.346311 0.560522 0.000000
C25   C     C_R   0.862662 0.350305 0.592926 0.000000
C26   C     C_R   0.870435 0.397195 0.589882 0.000000
N8    N     N_R   0.928295 0.409448 0.605251 0.000000
H12   H     H_    0.251772 0.475939 0.489597 0.000000
H13   H     H_    0.214813 0.474826 0.438503 0.000000
H14   H     H_    0.181082 0.463868 0.563245 0.000000
H15   H     H_    0.061126 0.468792 0.598792 0.000000
H16   H     H_    0.970897 0.454162 0.483088 0.000000
H17   H     H_    0.088852 0.454004 0.443449 0.000000
H18   H     H_    0.751626 0.467656 0.504724 0.000000
H19   H     H_    0.705607 0.338895 0.524576 0.000000
H20   H     H_    0.667997 0.395485 0.518722 0.000000
H21   H     H_    0.813918 0.310095 0.561001 0.000000
H22   H     H_    0.894625 0.318212 0.616691 0.000000
N9    N     N_2   0.106065 0.012304 0.228534 0.000000
C27   C     C_R   0.075680 0.965420 0.264124 0.000000
C28   C     C_R   0.070518 0.927094 0.251411 0.000000
C29   C     C_R   0.027805 0.885418 0.280826 0.000000
C30   C     C_R   0.990876 0.882424 0.323284 0.000000
C31   C     C_R   0.999567 0.920077 0.337129 0.000000
C32   C     C_R   0.044058 0.960354 0.308903 0.000000
C33   C     C_R   0.927946 0.850926 0.345002 0.000000
N10   N     N_R   0.913182 0.835538 0.397156 0.000000
C34   C     C_R   0.849702 0.860250 0.394599 0.000000
C35   C     C_R   0.815069 0.870837 0.430547 0.000000
C36   C     C_R   0.758676 0.906628 0.414683 0.000000
N11   N     N_2   0.725045 0.924292 0.446895 0.000000
C37   C     C_R   0.730777 0.922520 0.368103 0.000000
C38   C     C_R   0.759308 0.904106 0.336750 0.000000
C39   C     C_R   0.823276 0.879414 0.347082 0.000000
N12   N     N_R   0.868020 0.870652 0.314597 0.000000
H23   H     H_    0.103182 0.019460 0.191420 0.000000
H24   H     H_    0.089202 0.041938 0.235586 0.000000
H25   H     H_    0.097518 0.931578 0.216858 0.000000
H26   H     H_    0.020162 0.856721 0.269512 0.000000
H27   H     H_    0.965136 0.922500 0.366365 0.000000
H28   H     H_    0.046843 0.990712 0.318980 0.000000
H29   H     H_    0.834966 0.855220 0.467763 0.000000
H30   H     H_    0.680296 0.947123 0.432482 0.000000
H31   H     H_    0.716124 0.894705 0.482864 0.000000
H32   H     H_    0.684167 0.947169 0.357522 0.000000
H33   H     H_    0.732530 0.909064 0.305381 0.000000
N13   N     N_2   0.681062 0.962010 0.015728 0.000000
C40   C     C_R   0.732636 0.975731 0.038592 0.000000
C41   C     C_R   0.717118 0.971550 0.085730 0.000000
C42   C     C_R   0.769502 0.981332 0.109215 0.000000
C43   C     C_R   0.838555 0.987349 0.090491 0.000000
C44   C     C_R   0.852516 0.997062 0.041509 0.000000
C45   C     C_R   0.798164 0.994024 0.014210 0.000000
C46   C     C_R   0.891952 0.992611 0.120303 0.000000
N14   N     N_R   0.886025 0.964456 0.174252 0.000000
C47   C     C_R   0.916400 0.997959 0.185708 0.000000
C48   C     C_R   0.909664 0.998415 0.231634 0.000000
C49   C     C_R   0.928199 0.042522 0.232882 0.000000
N15   N     N_2   0.913948 0.046673 0.277814 0.000000
C50   C     C_R   0.957560 0.083763 0.189365 0.000000
C51   C     C_R   0.965666 0.082462 0.143634 0.000000
C52   C     C_R   0.943127 0.040087 0.142335 0.000000
N16   N     N_R   0.931632 0.037883 0.099515 0.000000
H34   H     H_    0.629787 0.967861 0.026663 0.000000
H35   H     H_    0.690265 0.974553 0.977587 0.000000
H36   H     H_    0.663914 0.961843 0.103848 0.000000
H37   H     H_    0.757728 0.983419 0.142989 0.000000
H38   H     H_    0.906757 0.003871 0.026078 0.000000
H39   H     H_    0.809560 0.000765 0.975719 0.000000
H40   H     H_    0.884637 0.967340 0.264851 0.000000
H41   H     H_    0.946120 0.072002 0.281109 0.000000
H42   H     H_    0.903940 0.012415 0.310463 0.000000
H43   H     H_    0.971208 0.118036 0.190708 0.000000
H44   H     H_    0.982721 0.115480 0.108654 0.000000
N17   N     N_2   0.615925 0.466102 0.194717 0.000000
C53   C     C_R   0.620693 0.519290 0.160818 0.000000
C54   C     C_R   0.569280 0.543982 0.126298 0.000000
C55   C     C_R   0.580620 0.593497 0.088309 0.000000
C56   C     C_R   0.646047 0.616470 0.080454 0.000000
C57   C     C_R   0.687924 0.596807 0.122445 0.000000
C58   C     C_R   0.676467 0.547383 0.161878 0.000000
C59   C     C_R   0.660713 0.666273 0.032681 0.000000
N18   N     N_R   0.600527 0.697314 0.009611 0.000000
C60   C     C_R   0.625189 0.743715 0.994885 0.000000
C61   C     C_R   0.581915 0.783529 0.991544 0.000000
C62   C     C_R   0.612615 0.826965 0.985057 0.000000
N19   N     N_2   0.569263 0.870457 0.975084 0.000000
C63   C     C_R   0.685458 0.827861 0.987229 0.000000
C64   C     C_R   0.728434 0.787010 0.990822 0.000000
C65   C     C_R   0.696888 0.742494 0.000589 0.000000
N20   N     N_R   0.725382 0.693731 0.021296 0.000000
H45   H     H_    0.582946 0.447179 0.183295 0.000000
H46   H     H_    0.664722 0.448299 0.207018 0.000000
H47   H     H_    0.521074 0.524485 0.127902 0.000000
H48   H     H_    0.538515 0.613313 0.063365 0.000000
H49   H     H_    0.733102 0.618060 0.122439 0.000000
H50   H     H_    0.712569 0.529993 0.192488 0.000000
H51   H     H_    0.524881 0.780410 0.995465 0.000000
H52   H     H_    0.596063 0.902056 0.970157 0.000000
H53   H     H_    0.532163 0.876959 0.948723 0.000000
H54   H     H_    0.708381 0.860895 0.986238 0.000000
H55   H     H_    0.784554 0.791224 0.983770 0.000000
N21   N     N_2   0.163987 0.640081 0.097270 0.000000
C66   C     C_R   0.211213 0.640760 0.058144 0.000000
C67   C     C_R   0.217565 0.598507 0.050410 0.000000
C68   C     C_R   0.273507 0.594754 0.019783 0.000000
C69   C     C_R   0.320575 0.634528 0.994170 0.000000
C70   C     C_R   0.312462 0.676916 0.000971 0.000000
C71   C     C_R   0.258714 0.680172 0.032961 0.000000
C72   C     C_R   0.389392 0.625962 0.973423 0.000000
N22   N     N_R   0.399535 0.594127 0.950512 0.000000
C73   C     C_R   0.468901 0.580701 0.959769 0.000000
C74   C     C_R   0.507482 0.544396 0.952839 0.000000
C75   C     C_R   0.571613 0.526698 0.975108 0.000000
N23   N     N_2   0.605559 0.482332 0.976680 0.000000
C76   C     C_R   0.605829 0.556958 0.989446 0.000000
C77   C     C_R   0.571661 0.599929 0.986945 0.000000
C78   C     C_R   0.499506 0.606314 0.980401 0.000000
N24   N     N_R   0.452340 0.638924 0.987112 0.000000
H56   H     H_    0.171797 0.669581 0.105150 0.000000
H57   H     H_    0.111642 0.635779 0.092494 0.000000
H58   H     H_    0.183809 0.565927 0.072442 0.000000
H59   H     H_    0.283444 0.559201 0.019180 0.000000
H60   H     H_    0.352494 0.705422 0.984498 0.000000
H61   H     H_    0.258538 0.711383 0.041766 0.000000
H62   H     H_    0.489190 0.530157 0.929997 0.000000
H63   H     H_    0.660558 0.482984 0.973757 0.000000
H64   H     H_    0.581932 0.467747 0.956392 0.000000
H65   H     H_    0.661276 0.550753 0.996568 0.000000
H66   H     H_    0.602270 0.627347 0.989443 0.000000
N25   N     N_2   0.266105 0.476861 0.183892 0.000000
C79   C     C_R   0.293996 0.526445 0.165188 0.000000
C80   C     C_R   0.351941 0.542084 0.130473 0.000000
C81   C     C_R   0.379070 0.590616 0.112256 0.000000
C82   C     C_R   0.349279 0.624217 0.128598 0.000000
C83   C     C_R   0.291381 0.608068 0.163346 0.000000
C84   C     C_R   0.263096 0.559876 0.181061 0.000000
C85   C     C_R   0.388566 0.670044 0.119422 0.000000
N26   N     N_R   0.394447 0.676676 0.162516 0.000000
C86   C     C_R   0.464338 0.679560 0.163022 0.000000
C87   C     C_R   0.499484 0.678584 0.201892 0.000000
C88   C     C_R   0.570816 0.667705 0.202940 0.000000
N27   N     N_2   0.609599 0.659746 0.244185 0.000000
C89   C     C_R   0.606420 0.670273 0.160741 0.000000
C90   C     C_R   0.570778 0.686726 0.117143 0.000000
C91   C     C_R   0.498053 0.684057 0.119656 0.000000
N28   N     N_R   0.451207 0.682603 0.087114 0.000000
H67   H     H_    0.301696 0.450810 0.180674 0.000000
H68   H     H_    0.237047 0.463632 0.218285 0.000000
H69   H     H_    0.376572 0.516464 0.117309 0.000000
H70   H     H_    0.424860 0.601113 0.085998 0.000000
H71   H     H_    0.267123 0.633588 0.176181 0.000000
H72   H     H_    0.216703 0.548477 0.207554 0.000000
H73   H     H_    0.472973 0.683850 0.231743 0.000000
H74   H     H_    0.643827 0.629049 0.252451 0.000000
H75   H     H_    0.579219 0.660032 0.274087 0.000000
H76   H     H_    0.663863 0.665491 0.160031 0.000000
H77   H     H_    0.602561 0.701562 0.084485 0.000000
N29   N     N_2   0.665587 0.948954 0.781811 0.000000
C92   C     C_R   0.614499 0.909796 0.806473 0.000000
C93   C     C_R   0.558377 0.909853 0.780617 0.000000
C94   C     C_R   0.501063 0.880095 0.807117 0.000000
C95   C     C_R   0.506992 0.839227 0.855421 0.000000
C96   C     C_R   0.571546 0.830711 0.875600 0.000000
C97   C     C_R   0.621589 0.868737 0.854664 0.000000
C98   C     C_R   0.442272 0.812984 0.885520 0.000000
N30   N     N_R   0.381036 0.844046 0.868600 0.000000
C99   C     C_R   0.349207 0.835599 0.913460 0.000000
C100  C     C_R   0.298338 0.866570 0.920282 0.000000
C101  C     C_R   0.283572 0.857796 0.969754 0.000000
N31   N     N_2   0.229684 0.885984 0.980090 0.000000
C102  C     C_R   0.318434 0.819468 0.010403 0.000000
C103  C     C_R   0.369518 0.789149 0.002633 0.000000
C104  C     C_R   0.384234 0.797511 0.954093 0.000000
N32   N     N_R   0.440818 0.777203 0.939198 0.000000
H78   H     H_    0.666679 0.967268 0.742502 0.000000
H79   H     H_    0.713970 0.942283 0.797900 0.000000
H80   H     H_    0.558512 0.934678 0.740149 0.000000
H81   H     H_    0.454025 0.887056 0.787302 0.000000
H82   H     H_    0.582902 0.794248 0.906560 0.000000
H83   H     H_    0.668808 0.863252 0.874692 0.000000
H84   H     H_    0.273045 0.897722 0.888089 0.000000
H85   H     H_    0.198745 0.907226 0.950106 0.000000
H86   H     H_    0.249797 0.905069 0.997011 0.000000
H87   H     H_    0.307583 0.814352 0.048373 0.000000
H88   H     H_    0.401577 0.763774 0.033033 0.000000
N33   N     N_2   0.689160 0.845126 0.763134 0.000000
C105  C     C_R   0.733277 0.834166 0.803178 0.000000
C106  C     C_R   0.787081 0.866415 0.794062 0.000000
C107  C     C_R   0.832311 0.856758 0.831356 0.000000
C108  C     C_R   0.826984 0.813645 0.877982 0.000000
C109  C     C_R   0.768724 0.783866 0.888788 0.000000
C110  C     C_R   0.722020 0.793411 0.851658 0.000000
C111  C     C_R   0.889173 0.798927 0.909666 0.000000
N34   N     N_R   0.951312 0.827522 0.887742 0.000000
C112  C     C_R   0.994424 0.804883 0.927018 0.000000
C113  C     C_R   0.062056 0.818510 0.929453 0.000000
C114  C     C_R   0.098805 0.787475 0.972231 0.000000
N35   N     N_2   0.169818 0.797539 0.974592 0.000000
C115  C     C_R   0.066804 0.746068 0.012724 0.000000
C116  C     C_R   0.999040 0.733415 0.009903 0.000000
C117  C     C_R   0.963060 0.763182 0.967408 0.000000
N36   N     N_R   0.895864 0.756030 0.959278 0.000000
H89   H     H_    0.694843 0.882249 0.734221 0.000000
H90   H     H_    0.637118 0.838260 0.775245 0.000000
H91   H     H_    0.794540 0.898425 0.756778 0.000000
H92   H     H_    0.872511 0.883415 0.822935 0.000000
H93   H     H_    0.763421 0.750323 0.924243 0.000000
H94   H     H_    0.679128 0.767377 0.860971 0.000000
H95   H     H_    0.086883 0.851535 0.898809 0.000000
H96   H     H_    0.202655 0.790296 0.949656 0.000000
H97   H     H_    0.186126 0.778649 0.011336 0.000000
H98   H     H_    0.094654 0.723367 0.046732 0.000000
H99   H     H_    0.975322 0.701499 0.040711 0.000000
N37   N     N_2   0.872775 0.899334 0.042073 0.000000
C118  C     C_R   0.888975 0.847891 0.059062 0.000000
C119  C     C_R   0.933737 0.823266 0.097619 0.000000
C120  C     C_R   0.938651 0.771309 0.120913 0.000000
C121  C     C_R   0.906062 0.744637 0.102089 0.000000
C122  C     C_R   0.864372 0.769804 0.061634 0.000000
C123  C     C_R   0.855738 0.821982 0.039690 0.000000
C124  C     C_R   0.910070 0.689495 0.126269 0.000000
N38   N     N_R   0.927297 0.659227 0.177476 0.000000
C125  C     C_R   0.901576 0.613549 0.186215 0.000000
C126  C     C_R   0.873630 0.574976 0.231346 0.000000
C127  C     C_R   0.850488 0.530832 0.232330 0.000000
N39   N     N_2   0.819254 0.491091 0.277550 0.000000
C128  C     C_R   0.854956 0.526776 0.188107 0.000000
C129  C     C_R   0.866779 0.570430 0.142059 0.000000
C130  C     C_R   0.882751 0.614963 0.142102 0.000000
N40   N     N_R   0.883574 0.663256 0.102530 0.000000
H100  H     H_    0.914074 0.917606 0.047121 0.000000
H101  H     H_    0.849303 0.916071 0.007609 0.000000
H102  H     H_    0.963141 0.844563 0.110205 0.000000
H103  H     H_    0.968903 0.751762 0.153468 0.000000
H104  H     H_    0.835906 0.747501 0.049815 0.000000
H105  H     H_    0.822257 0.843097 0.008367 0.000000
H106  H     H_    0.863496 0.580688 0.263894 0.000000
H107  H     H_    0.826783 0.454800 0.281326 0.000000
H108  H     H_    0.824033 0.494948 0.309549 0.000000
H109  H     H_    0.840293 0.491609 0.188758 0.000000
H110  H     H_    0.866652 0.568554 0.107601 0.000000
N41   N     N_2   0.092868 0.475915 0.168351 0.000000
C131  C     C_R   0.065464 0.511353 0.120962 0.000000
C132  C     C_R   0.068114 0.500423 0.081196 0.000000
C133  C     C_R   0.038448 0.534393 0.035664 0.000000
C134  C     C_R   0.006570 0.580274 0.028041 0.000000
C135  C     C_R   0.007192 0.591334 0.067739 0.000000
C136  C     C_R   0.035250 0.557215 0.113931 0.000000
C137  C     C_R   0.950981 0.604102 0.989814 0.000000
N42   N     N_R   0.935084 0.573888 0.967478 0.000000
C138  C     C_R   0.869346 0.557242 0.989544 0.000000
C139  C     C_R   0.832732 0.515468 0.995618 0.000000
C140  C     C_R   0.779390 0.495056 0.034012 0.000000
N43   N     N_2   0.748897 0.447482 0.046863 0.000000
C141  C     C_R   0.755923 0.521686 0.059668 0.000000
C142  C     C_R   0.784697 0.568885 0.045077 0.000000
C143  C     C_R   0.844239 0.583125 0.014224 0.000000
N44   N     N_R   0.889270 0.619546 0.008715 0.000000
H111  H     H_    0.096578 0.438575 0.174605 0.000000
H112  H     H_    0.072387 0.480674 0.198753 0.000000
H113  H     H_    0.089877 0.463883 0.086596 0.000000
H114  H     H_    0.034145 0.522089 0.008079 0.000000
H115  H     H_    0.979204 0.624248 0.065166 0.000000
H116  H     H_    0.031673 0.566288 0.145039 0.000000
H117  H     H_    0.847513 0.496343 0.974422 0.000000
H118  H     H_    0.779852 0.424791 0.035411 0.000000
H119  H     H_    0.725244 0.428958 0.083217 0.000000
H120  H     H_    0.713169 0.506897 0.088937 0.000000
H121  H     H_    0.771132 0.591514 0.062508 0.000000
N45   N     N_2   0.685554 0.603817 0.883632 0.000000
C144  C     C_R   0.628932 0.617500 0.851178 0.000000
C145  C     C_R   0.619891 0.667010 0.814024 0.000000
C146  C     C_R   0.554753 0.681612 0.794705 0.000000
C147  C     C_R   0.500635 0.648404 0.814730 0.000000
C148  C     C_R   0.517142 0.596962 0.835953 0.000000
C149  C     C_R   0.583513 0.581253 0.854159 0.000000
C150  C     C_R   0.430680 0.666603 0.798419 0.000000
N46   N     N_R   0.426610 0.700108 0.745841 0.000000
C151  C     C_R   0.381947 0.673640 0.734809 0.000000
C152  C     C_R   0.381365 0.675025 0.689004 0.000000
C153  C     C_R   0.339686 0.640726 0.685163 0.000000
N47   N     N_2   0.342882 0.638326 0.639768 0.000000
C154  C     C_R   0.301196 0.604620 0.727097 0.000000
C155  C     C_R   0.311407 0.598778 0.774840 0.000000
C156  C     C_R   0.353232 0.632934 0.777971 0.000000
N48   N     N_R   0.378369 0.629066 0.820703 0.000000
H122  H     H_    0.683553 0.625915 0.901280 0.000000
H123  H     H_    0.686688 0.565511 0.909524 0.000000
H124  H     H_    0.660549 0.695240 0.800232 0.000000
H125  H     H_    0.544624 0.719911 0.765844 0.000000
H126  H     H_    0.478856 0.568409 0.841506 0.000000
H127  H     H_    0.595084 0.540821 0.875816 0.000000
H128  H     H_    0.421045 0.695887 0.659664 0.000000
H129  H     H_    0.340433 0.600853 0.647292 0.000000
H130  H     H_    0.383548 0.659343 0.614145 0.000000
H131  H     H_    0.266283 0.579697 0.722220 0.000000
H132  H     H_    0.286060 0.570203 0.808876 0.000000
N49   N     N_2   0.183203 0.709254 0.679600 0.000000
C157  C     C_R   0.176771 0.679677 0.732735 0.000000
C158  C     C_R   0.215405 0.691740 0.763110 0.000000
C159  C     C_R   0.213594 0.659436 0.815300 0.000000
C160  C     C_R   0.171467 0.616475 0.836199 0.000000
C161  C     C_R   0.132171 0.605709 0.805662 0.000000
C162  C     C_R   0.136038 0.636612 0.753938 0.000000
C163  C     C_R   0.169085 0.580411 0.890062 0.000000
N50   N     N_R   0.232669 0.561419 0.915754 0.000000
C164  C     C_R   0.207499 0.520270 0.958349 0.000000
C165  C     C_R   0.245997 0.485859 0.998221 0.000000
C166  C     C_R   0.214983 0.440114 0.033555 0.000000
N51   N     N_2   0.251571 0.405592 0.077170 0.000000
C167  C     C_R   0.149494 0.427321 0.024243 0.000000
C168  C     C_R   0.111197 0.463495 0.984082 0.000000
C169  C     C_R   0.137313 0.512114 0.955578 0.000000
N52   N     N_R   0.106995 0.552041 0.915366 0.000000
H133  H     H_    0.236305 0.714574 0.668525 0.000000
H134  H     H_    0.156362 0.694534 0.660711 0.000000
H135  H     H_    0.247915 0.725766 0.746167 0.000000
H136  H     H_    0.244866 0.667981 0.839251 0.000000
H137  H     H_    0.098769 0.572584 0.822561 0.000000
H138  H     H_    0.108881 0.626365 0.729873 0.000000
H139  H     H_    0.298349 0.495304 0.001575 0.000000
H140  H     H_    0.218824 0.379484 0.106444 0.000000
H141  H     H_    0.288340 0.422893 0.087800 0.000000
H142  H     H_    0.127727 0.389512 0.048508 0.000000
H143  H     H_    0.064575 0.453281 0.973139 0.000000
N53   N     N_2   0.156614 0.505154 0.781858 0.000000
C170  C     C_R   0.219565 0.493197 0.808352 0.000000
C171  C     C_R   0.215281 0.488557 0.856162 0.000000
C172  C     C_R   0.275316 0.475421 0.882929 0.000000
C173  C     C_R   0.340406 0.472321 0.860602 0.000000
C174  C     C_R   0.345533 0.473892 0.814399 0.000000
C175  C     C_R   0.283773 0.481754 0.789340 0.000000
C176  C     C_R   0.399966 0.464398 0.890395 0.000000
N54   N     N_R   0.394900 0.490266 0.919080 0.000000
C177  C     C_R   0.421303 0.453455 0.963733 0.000000
C178  C     C_R   0.422953 0.453223 0.010271 0.000000
C179  C     C_R   0.448995 0.410149 0.051854 0.000000
N55   N     N_2   0.451483 0.409334 0.099340 0.000000
C180  C     C_R   0.469392 0.367034 0.047409 0.000000
C181  C     C_R   0.467417 0.368214 0.000804 0.000000
C182  C     C_R   0.446806 0.411875 0.959070 0.000000
N56   N     N_R   0.435161 0.416243 0.912982 0.000000
H144  H     H_    0.114465 0.510416 0.802633 0.000000
H145  H     H_    0.144436 0.477707 0.772477 0.000000
H146  H     H_    0.164702 0.491775 0.874082 0.000000
H147  H     H_    0.270861 0.465059 0.922560 0.000000
H148  H     H_    0.396476 0.466652 0.799640 0.000000
H149  H     H_    0.287289 0.478366 0.755456 0.000000
H150  H     H_    0.406560 0.486025 0.014968 0.000000
H151  H     H_    0.486306 0.382054 0.123820 0.000000
H152  H     H_    0.453234 0.445178 0.096757 0.000000
H153  H     H_    0.484152 0.331770 0.080696 0.000000
H154  H     H_    0.471441 0.334124 0.998001 0.000000
N57   N     N_2   0.222250 0.437443 0.366566 0.000000
C183  C     C_R   0.210715 0.491213 0.339484 0.000000
C184  C     C_R   0.266988 0.523397 0.314314 0.000000
C185  C     C_R   0.254889 0.575798 0.286258 0.000000
C186  C     C_R   0.186401 0.596612 0.283330 0.000000
C187  C     C_R   0.131503 0.564470 0.310077 0.000000
C188  C     C_R   0.143064 0.511994 0.337944 0.000000
C189  C     C_R   0.171943 0.650965 0.246912 0.000000
N58   N     N_R   0.230066 0.683575 0.221358 0.000000
C190  C     C_R   0.197793 0.721561 0.182013 0.000000
C191  C     C_R   0.227084 0.766121 0.144980 0.000000
C192  C     C_R   0.181811 0.798850 0.108031 0.000000
N59   N     N_2   0.194788 0.851588 0.081400 0.000000
C193  C     C_R   0.119577 0.780522 0.100991 0.000000
C194  C     C_R   0.094559 0.733958 0.138079 0.000000
C195  C     C_R   0.127197 0.712004 0.182770 0.000000
N60   N     N_R   0.104052 0.671201 0.226307 0.000000
H155  H     H_    0.274057 0.426409 0.377201 0.000000
H156  H     H_    0.182625 0.417790 0.394031 0.000000
H157  H     H_    0.320179 0.507293 0.315157 0.000000
H158  H     H_    0.299137 0.599699 0.264180 0.000000
H159  H     H_    0.079725 0.581550 0.308806 0.000000
H160  H     H_    0.099004 0.486965 0.358080 0.000000
H161  H     H_    0.279094 0.777826 0.148292 0.000000
H162  H     H_    0.148638 0.873030 0.068419 0.000000
H163  H     H_    0.226130 0.863428 0.100522 0.000000
H164  H     H_    0.088449 0.803316 0.068467 0.000000
H165  H     H_    0.052094 0.714582 0.132255 0.000000
N61   N     N_2   0.155850 0.808075 0.357208 0.000000
C196  C     C_R   0.214670 0.803293 0.327870 0.000000
C197  C     C_R   0.273143 0.772790 0.350874 0.000000
C198  C     C_R   0.330378 0.769280 0.321001 0.000000
C199  C     C_R   0.328628 0.795072 0.268972 0.000000
C200  C     C_R   0.270525 0.824488 0.246540 0.000000
C201  C     C_R   0.213123 0.828585 0.275711 0.000000
C202  C     C_R   0.387437 0.794710 0.235133 0.000000
N62   N     N_R   0.432284 0.837422 0.211359 0.000000
C203  C     C_R   0.454171 0.835533 0.168874 0.000000
C204  C     C_R   0.504559 0.865637 0.133744 0.000000
C205  C     C_R   0.528130 0.852176 0.097078 0.000000
N63   N     N_2   0.593007 0.871669 0.069752 0.000000
C206  C     C_R   0.490401 0.817484 0.089623 0.000000
C207  C     C_R   0.433846 0.791847 0.122577 0.000000
C208  C     C_R   0.423869 0.796039 0.166018 0.000000
N64   N     N_R   0.383117 0.766623 0.208482 0.000000
H166  H     H_    0.109264 0.799078 0.347192 0.000000
H167  H     H_    0.151316 0.845062 0.351843 0.000000
H168  H     H_    0.275268 0.753189 0.391826 0.000000
H169  H     H_    0.375110 0.744972 0.337540 0.000000
H170  H     H_    0.273434 0.846108 0.205557 0.000000
H171  H     H_    0.168347 0.853327 0.257912 0.000000
H172  H     H_    0.531056 0.894258 0.138922 0.000000
H173  H     H_    0.621513 0.845061 0.062868 0.000000
H174  H     H_    0.622041 0.885775 0.087987 0.000000
H175  H     H_    0.504880 0.809465 0.058791 0.000000
H176  H     H_    0.400010 0.769009 0.114337 0.000000
N65   N     N_2   0.626434 0.476113 0.284338 0.000000
C209  C     C_R   0.579837 0.510396 0.292649 0.000000
C210  C     C_R   0.602464 0.535097 0.317838 0.000000
C211  C     C_R   0.554119 0.561301 0.334185 0.000000
C212  C     C_R   0.485847 0.570156 0.317710 0.000000
C213  C     C_R   0.465682 0.551129 0.286462 0.000000
C214  C     C_R   0.511211 0.518857 0.276295 0.000000
C215  C     C_R   0.434788 0.600132 0.332217 0.000000
N66   N     N_R   0.389403 0.637455 0.296773 0.000000
C216  C     C_R   0.346236 0.647758 0.327259 0.000000
C217  C     C_R   0.289876 0.679941 0.310222 0.000000
C218  C     C_R   0.232353 0.671363 0.341947 0.000000
N67   N     N_2   0.168905 0.698697 0.319803 0.000000
C219  C     C_R   0.236742 0.630913 0.391851 0.000000
C220  C     C_R   0.300021 0.604481 0.410383 0.000000
C221  C     C_R   0.357842 0.616438 0.377058 0.000000
N68   N     N_R   0.419139 0.588636 0.383278 0.000000
H177  H     H_    0.674356 0.469450 0.301500 0.000000
H178  H     H_    0.601152 0.443385 0.290530 0.000000
H179  H     H_    0.658147 0.533830 0.325055 0.000000
H180  H     H_    0.571362 0.578722 0.356049 0.000000
H181  H     H_    0.413302 0.559824 0.271315 0.000000
H182  H     H_    0.493605 0.501396 0.254521 0.000000
H183  H     H_    0.287996 0.710174 0.272023 0.000000
H184  H     H_    0.157557 0.728495 0.327360 0.000000
H185  H     H_    0.171744 0.715398 0.280823 0.000000
H186  H     H_    0.191329 0.616321 0.416715 0.000000
H187  H     H_    0.299586 0.569976 0.446358 0.000000
N69   N     N_2   0.168519 0.660681 0.929027 0.000000
C222  C     C_R   0.169809 0.714609 0.902236 0.000000
C223  C     C_R   0.233562 0.740279 0.885397 0.000000
C224  C     C_R   0.233548 0.793151 0.855542 0.000000
C225  C     C_R   0.170148 0.819837 0.840395 0.000000
C226  C     C_R   0.108147 0.792749 0.852069 0.000000
C227  C     C_R   0.106889 0.741401 0.887513 0.000000
C228  C     C_R   0.166271 0.876072 0.811870 0.000000
N70   N     N_R   0.226857 0.907376 0.792655 0.000000
C229  C     C_R   0.196636 0.951806 0.758569 0.000000
C230  C     C_R   0.232223 0.992020 0.719638 0.000000
C231  C     C_R   0.193385 0.029226 0.680246 0.000000
N71   N     N_2   0.228966 0.068326 0.636627 0.000000
C232  C     C_R   0.119254 0.028559 0.683997 0.000000
C233  C     C_R   0.083642 0.989393 0.725426 0.000000
C234  C     C_R   0.123637 0.949241 0.760570 0.000000
N72   N     N_R   0.100595 0.901759 0.795134 0.000000
H188  H     H_    0.217562 0.642688 0.933028 0.000000
H189  H     H_    0.129334 0.644945 0.957962 0.000000
H190  H     H_    0.283470 0.719155 0.896153 0.000000
H191  H     H_    0.282940 0.813303 0.842589 0.000000
H192  H     H_    0.059025 0.812469 0.836588 0.000000
H193  H     H_    0.057075 0.721031 0.900145 0.000000
H194  H     H_    0.289264 0.993964 0.720445 0.000000
H195  H     H_    0.198572 0.100820 0.615691 0.000000
H196  H     H_    0.281845 0.073093 0.640505 0.000000
H197  H     H_    0.088972 0.057736 0.653567 0.000000
H198  H     H_    0.026551 0.987445 0.725461 0.000000
N73   N     N_2   0.551048 0.700217 0.902175 0.000000
C235  C     C_R   0.511988 0.731201 0.859572 0.000000
C236  C     C_R   0.547972 0.765416 0.816367 0.000000
C237  C     C_R   0.510829 0.799995 0.776230 0.000000
C238  C     C_R   0.438225 0.800467 0.780131 0.000000
C239  C     C_R   0.401792 0.761712 0.819387 0.000000
C240  C     C_R   0.438674 0.727910 0.860502 0.000000
C241  C     C_R   0.404170 0.836743 0.736426 0.000000
N74   N     N_R   0.374800 0.883440 0.730683 0.000000
C242  C     C_R   0.369773 0.909317 0.678337 0.000000
C243  C     C_R   0.345212 0.958616 0.645861 0.000000
C244  C     C_R   0.349667 0.976910 0.593249 0.000000
N75   N     N_2   0.326056 0.027365 0.559893 0.000000
C245  C     C_R   0.379417 0.946780 0.572824 0.000000
C246  C     C_R   0.403789 0.897954 0.604655 0.000000
C247  C     C_R   0.397242 0.879888 0.656608 0.000000
N76   N     N_R   0.419667 0.833619 0.692303 0.000000
H199  H     H_    0.540022 0.710804 0.929908 0.000000
H200  H     H_    0.605151 0.699628 0.893884 0.000000
H201  H     H_    0.604946 0.762363 0.812740 0.000000
H202  H     H_    0.537974 0.828729 0.742356 0.000000
H203  H     H_    0.345481 0.758035 0.817336 0.000000
H204  H     H_    0.409183 0.700201 0.892450 0.000000
H205  H     H_    0.326938 0.984685 0.658934 0.000000
H206  H     H_    0.321854 0.034509 0.522872 0.000000
H207  H     H_    0.282446 0.039444 0.574409 0.000000
H208  H     H_    0.384481 0.961431 0.531890 0.000000
H209  H     H_    0.428722 0.875077 0.588671 0.000000
N77   N     N_2   0.170530 0.158305 0.670939 0.000000
C248  C     C_R   0.223327 0.124540 0.702134 0.000000
C249  C     C_R   0.203616 0.080436 0.746012 0.000000
C250  C     C_R   0.254829 0.046489 0.776695 0.000000
C251  C     C_R   0.326007 0.057542 0.764582 0.000000
C252  C     C_R   0.345601 0.099896 0.717967 0.000000
C253  C     C_R   0.294650 0.133786 0.687548 0.000000
C254  C     C_R   0.382041 0.021741 0.794966 0.000000
N78   N     N_R   0.392674 0.980811 0.783247 0.000000
C255  C     C_R   0.454720 0.996453 0.755607 0.000000
C256  C     C_R   0.463842 0.001262 0.707520 0.000000
C257  C     C_R   0.514070 0.034928 0.673039 0.000000
N79   N     N_2   0.515021 0.047891 0.621047 0.000000
C258  C     C_R   0.560053 0.058670 0.688986 0.000000
C259  C     C_R   0.548331 0.055218 0.736559 0.000000
C260  C     C_R   0.489113 0.030382 0.765866 0.000000
N80   N     N_R   0.445775 0.047168 0.793401 0.000000
H210  H     H_    0.120910 0.142055 0.678782 0.000000
H211  H     H_    0.186563 0.177581 0.632808 0.000000
H212  H     H_    0.147951 0.070863 0.754377 0.000000
H213  H     H_    0.239670 0.010331 0.808804 0.000000
H214  H     H_    0.401085 0.108209 0.705047 0.000000
H215  H     H_    0.311070 0.167301 0.652309 0.000000
H216  H     H_    0.428236 0.982285 0.696061 0.000000
H217  H     H_    0.562083 0.062914 0.600084 0.000000
H218  H     H_    0.485548 0.024774 0.612715 0.000000
H219  H     H_    0.600473 0.084087 0.662629 0.000000
H220  H     H_    0.581150 0.075197 0.748160 0.000000
N81   N     N_2   0.691918 0.487484 0.859653 0.000000
C261  C     C_R   0.738993 0.527609 0.847230 0.000000
C262  C     C_R   0.730764 0.574226 0.804120 0.000000
C263  C     C_R   0.776896 0.613915 0.791215 0.000000
C264  C     C_R   0.829907 0.607169 0.822850 0.000000
C265  C     C_R   0.831598 0.562945 0.869109 0.000000
C266  C     C_R   0.788998 0.522100 0.880358 0.000000
C267  C     C_R   0.889229 0.642476 0.807358 0.000000
N82   N     N_R   0.893784 0.691314 0.762488 0.000000
C268  C     C_R   0.961810 0.702276 0.764911 0.000000
C269  C     C_R   0.999645 0.743343 0.728544 0.000000
C270  C     C_R   0.059500 0.756518 0.743538 0.000000
N83   N     N_2   0.099092 0.799783 0.709057 0.000000
C271  C     C_R   0.079644 0.728167 0.793175 0.000000
C272  C     C_R   0.045999 0.682879 0.827261 0.000000
C273  C     C_R   0.990396 0.668415 0.810392 0.000000
N84   N     N_R   0.949210 0.627141 0.837579 0.000000
H221  H     H_    0.712915 0.451510 0.882684 0.000000
H222  H     H_    0.664584 0.492480 0.829036 0.000000
H223  H     H_    0.685858 0.579892 0.782059 0.000000
H224  H     H_    0.770520 0.650354 0.757927 0.000000
H225  H     H_    0.869315 0.559104 0.895799 0.000000
H226  H     H_    0.792157 0.486701 0.915882 0.000000
H227  H     H_    0.981673 0.765729 0.690265 0.000000
H228  H     H_    0.127837 0.815506 0.726156 0.000000
H229  H     H_    0.070207 0.825433 0.679014 0.000000
H230  H     H_    0.126883 0.739447 0.803294 0.000000
H231  H     H_    0.062122 0.660003 0.865979 0.000000
N85   N     N_2   0.036561 0.568853 0.696415 0.000000
C274  C     C_R   0.002526 0.539697 0.744040 0.000000
C275  C     C_R   0.987120 0.562112 0.773612 0.000000
C276  C     C_R   0.965312 0.531952 0.822617 0.000000
C277  C     C_R   0.951667 0.481552 0.841846 0.000000
C278  C     C_R   0.971809 0.458240 0.813519 0.000000
C279  C     C_R   0.991470 0.487961 0.763244 0.000000
C280  C     C_R   0.928404 0.454147 0.894717 0.000000
N86   N     N_R   0.945786 0.474667 0.926313 0.000000
C281  C     C_R   0.933911 0.432405 0.972732 0.000000
C282  C     C_R   0.945163 0.427254 0.020209 0.000000
C283  C     C_R   0.934783 0.380049 0.063191 0.000000
N87   N     N_2   0.946669 0.373919 0.111945 0.000000
C284  C     C_R   0.913105 0.338684 0.058397 0.000000
C285  C     C_R   0.899546 0.344399 0.011035 0.000000
C286  C     C_R   0.907982 0.391797 0.968413 0.000000
N88   N     N_R   0.898792 0.404181 0.919061 0.000000
H232  H     H_    0.038541 0.607091 0.686445 0.000000
H233  H     H_    0.014796 0.562108 0.670125 0.000000
H234  H     H_    0.995054 0.602501 0.759750 0.000000
H235  H     H_    0.962452 0.547522 0.846980 0.000000
H236  H     H_    0.970817 0.417391 0.829615 0.000000
H237  H     H_    0.996694 0.469432 0.740316 0.000000
H238  H     H_    0.962155 0.459275 0.023942 0.000000
H239  H     H_    0.956335 0.336464 0.139177 0.000000
H240  H     H_    0.979680 0.400959 0.111393 0.000000
H241  H     H_    0.905614 0.301681 0.091990 0.000000
H242  H     H_    0.882034 0.311973 0.008522 0.000000
N89   N     N_2   0.120106 0.396336 0.890147 0.000000
C287  C     C_R   0.182429 0.382783 0.869486 0.000000
C288  C     C_R   0.182575 0.381311 0.823945 0.000000
C289  C     C_R   0.243112 0.365462 0.806489 0.000000
C290  C     C_R   0.305835 0.358749 0.828850 0.000000
C291  C     C_R   0.305432 0.359865 0.874386 0.000000
C292  C     C_R   0.243229 0.369657 0.895603 0.000000
C293  C     C_R   0.373498 0.356713 0.802409 0.000000
N90   N     N_R   0.381460 0.357927 0.753508 0.000000
C294  C     C_R   0.452951 0.358507 0.748254 0.000000
C295  C     C_R   0.492392 0.369087 0.704463 0.000000
C296  C     C_R   0.564710 0.371916 0.705219 0.000000
N91   N     N_2   0.606829 0.396259 0.659106 0.000000
C297  C     C_R   0.595372 0.350513 0.751761 0.000000
C298  C     C_R   0.555030 0.342311 0.795207 0.000000
C299  C     C_R   0.484561 0.353481 0.790409 0.000000
N92   N     N_R   0.437284 0.354375 0.825878 0.000000
H243  H     H_    0.086343 0.421467 0.863412 0.000000
H244  H     H_    0.127253 0.402283 0.920747 0.000000
H245  H     H_    0.134080 0.389380 0.803502 0.000000
H246  H     H_    0.242380 0.357713 0.775524 0.000000
H247  H     H_    0.353853 0.357085 0.892140 0.000000
H248  H     H_    0.242481 0.371664 0.930534 0.000000
H249  H     H_    0.468205 0.378093 0.669910 0.000000
H250  H     H_    0.656662 0.407154 0.662449 0.000000
H251  H     H_    0.579233 0.421595 0.627795 0.000000
H252  H     H_    0.651360 0.344337 0.753220 0.000000
H253  H     H_    0.576796 0.328230 0.831730 0.000000
N93   N     N_2   0.640902 0.214801 0.849496 0.000000
C300  C     C_R   0.584164 0.218006 0.880941 0.000000
C301  C     C_R   0.596690 0.214952 0.927079 0.000000
C302  C     C_R   0.540401 0.209194 0.960712 0.000000
C303  C     C_R   0.472695 0.216942 0.943891 0.000000
C304  C     C_R   0.462148 0.232456 0.894365 0.000000
C305  C     C_R   0.516492 0.228794 0.863743 0.000000
C306  C     C_R   0.418221 0.230731 0.970021 0.000000
N94   N     N_R   0.368432 0.196977 0.005746 0.000000
C307  C     C_R   0.333388 0.228768 0.021067 0.000000
C308  C     C_R   0.283587 0.216409 0.061003 0.000000
C309  C     C_R   0.258956 0.254765 0.072569 0.000000
N95   N     N_2   0.218764 0.242457 0.118455 0.000000
C310  C     C_R   0.277300 0.305215 0.040578 0.000000
C311  C     C_R   0.327341 0.317050 0.000898 0.000000
C312  C     C_R   0.358331 0.278089 0.993620 0.000000
N96   N     N_R   0.412857 0.281224 0.960119 0.000000
H254  H     H_    0.634218 0.184542 0.842550 0.000000
H255  H     H_    0.642825 0.248323 0.815634 0.000000
H256  H     H_    0.650285 0.214611 0.938101 0.000000
H257  H     H_    0.549377 0.202001 0.998859 0.000000
H258  H     H_    0.411249 0.249558 0.879962 0.000000
H259  H     H_    0.506643 0.240227 0.824979 0.000000
H260  H     H_    0.269236 0.177354 0.085186 0.000000
H261  H     H_    0.209656 0.273265 0.125191 0.000000
H262  H     H_    0.239297 0.210555 0.148952 0.000000
H263  H     H_    0.254825 0.335522 0.047611 0.000000
H264  H     H_    0.339760 0.356403 0.976110 0.000000
N97   N     N_2   0.598547 0.490352 0.676732 0.000000
C313  C     C_R   0.613087 0.462774 0.728690 0.000000
C314  C     C_R   0.678000 0.438506 0.742110 0.000000
C315  C     C_R   0.690925 0.408649 0.792653 0.000000
C316  C     C_R   0.642570 0.404492 0.830174 0.000000
C317  C     C_R   0.578591 0.431898 0.816930 0.000000
C318  C     C_R   0.563658 0.460745 0.766142 0.000000
C319  C     C_R   0.652518 0.364788 0.882774 0.000000
N98   N     N_R   0.719424 0.350293 0.907515 0.000000
C320  C     C_R   0.692569 0.325002 0.956172 0.000000
C321  C     C_R   0.722128 0.325799 0.996361 0.000000
C322  C     C_R   0.681339 0.309756 0.041763 0.000000
N99   N     N_2   0.706736 0.315785 0.081903 0.000000
C323  C     C_R   0.616076 0.286665 0.048096 0.000000
C324  C     C_R   0.586186 0.287862 0.006649 0.000000
C325  C     C_R   0.620421 0.315436 0.959551 0.000000
N100  N     N_R   0.590825 0.341074 0.913478 0.000000
H265  H     H_    0.642603 0.494239 0.652571 0.000000
H266  H     H_    0.556159 0.474933 0.669350 0.000000
H267  H     H_    0.715734 0.438164 0.713295 0.000000
H268  H     H_    0.736333 0.384189 0.803425 0.000000
H269  H     H_    0.539000 0.429604 0.845861 0.000000
H270  H     H_    0.513077 0.480918 0.756164 0.000000
H271  H     H_    0.770860 0.345773 0.989760 0.000000
H272  H     H_    0.682161 0.292963 0.117241 0.000000
H273  H     H_    0.761481 0.318437 0.080765 0.000000
H274  H     H_    0.586533 0.270028 0.084738 0.000000
H275  H     H_    0.534930 0.270831 0.011353 0.000000
N101  N     N_2   0.174069 0.998179 0.901729 0.000000
C326  C     C_R   0.121849 0.001854 0.869200 0.000000
C327  C     C_R   0.085112 0.047266 0.842050 0.000000
C328  C     C_R   0.025519 0.048391 0.817923 0.000000
C329  C     C_R   0.001482 0.002615 0.824761 0.000000
C330  C     C_R   0.041569 0.958433 0.847871 0.000000
C331  C     C_R   0.104188 0.958576 0.867932 0.000000
C332  C     C_R   0.933804 0.999211 0.807979 0.000000
N102  N     N_R   0.882764 0.039870 0.791858 0.000000
C333  C     C_R   0.849551 0.030264 0.758239 0.000000
C334  C     C_R   0.801513 0.061234 0.723106 0.000000
C335  C     C_R   0.784954 0.050248 0.684783 0.000000
N103  N     N_2   0.737924 0.082467 0.647018 0.000000
C336  C     C_R   0.817239 0.008887 0.681799 0.000000
C337  C     C_R   0.864768 0.977858 0.717432 0.000000
C338  C     C_R   0.877508 0.987062 0.756728 0.000000
N104  N     N_R   0.927603 0.963080 0.791119 0.000000
H276  H     H_    0.169477 0.025796 0.913104 0.000000
H277  H     H_    0.223904 0.990378 0.890134 0.000000
H278  H     H_    0.102504 0.081986 0.839200 0.000000
H279  H     H_    0.995479 0.083927 0.798027 0.000000
H280  H     H_    0.020494 0.922541 0.854818 0.000000
H281  H     H_    0.134534 0.923486 0.887468 0.000000
H282  H     H_    0.779574 0.093997 0.724295 0.000000
H283  H     H_    0.742771 0.078984 0.614263 0.000000
H284  H     H_    0.734556 0.119411 0.641327 0.000000
H285  H     H_    0.806332 0.001027 0.651162 0.000000
H286  H     H_    0.891486 0.947266 0.713912 0.000000
N105  N     N_2   0.782764 0.663382 0.930812 0.000000
C339  C     C_R   0.825771 0.688994 0.885780 0.000000
C340  C     C_R   0.793427 0.708470 0.840815 0.000000
C341  C     C_R   0.820530 0.750272 0.798731 0.000000
C342  C     C_R   0.882074 0.771648 0.801558 0.000000
C343  C     C_R   0.920511 0.747564 0.844115 0.000000
C344  C     C_R   0.892334 0.706245 0.886718 0.000000
C345  C     C_R   0.908008 0.816995 0.757236 0.000000
N106  N     N_R   0.895097 0.822903 0.709438 0.000000
C346  C     C_R   0.933235 0.865977 0.679087 0.000000
C347  C     C_R   0.935573 0.896324 0.627007 0.000000
C348  C     C_R   0.979943 0.938894 0.604836 0.000000
N107  N     N_2   0.977166 0.975056 0.552700 0.000000
C349  C     C_R   0.027301 0.946249 0.634019 0.000000
C350  C     C_R   0.022414 0.916245 0.686037 0.000000
C351  C     C_R   0.969773 0.881004 0.707655 0.000000
N108  N     N_R   0.950955 0.854510 0.757714 0.000000
H287  H     H_    0.729444 0.672695 0.925232 0.000000
H288  H     H_    0.797700 0.672649 0.957489 0.000000
H289  H     H_    0.741182 0.696668 0.840965 0.000000
H290  H     H_    0.789657 0.768520 0.765311 0.000000
H291  H     H_    0.969937 0.763336 0.845221 0.000000
H292  H     H_    0.919012 0.693231 0.921365 0.000000
H293  H     H_    0.899497 0.889963 0.605031 0.000000
H294  H     H_    0.014316 0.003589 0.540756 0.000000
H295  H     H_    0.926124 0.989767 0.543808 0.000000
H296  H     H_    0.066737 0.976199 0.616677 0.000000
H297  H     H_    0.061781 0.917362 0.709043 0.000000
N109  N     N_2   0.113327 0.872635 0.587748 0.000000
C352  C     C_R   0.172383 0.838800 0.596030 0.000000
C353  C     C_R   0.176642 0.806777 0.574590 0.000000
C354  C     C_R   0.241706 0.784354 0.571149 0.000000
C355  C     C_R   0.299573 0.789560 0.593858 0.000000
C356  C     C_R   0.289162 0.811013 0.625691 0.000000
C357  C     C_R   0.227240 0.838472 0.624484 0.000000
C358  C     C_R   0.372328 0.781106 0.578009 0.000000
N110  N     N_R   0.387812 0.788155 0.527698 0.000000
C359  C     C_R   0.458273 0.800107 0.522701 0.000000
C360  C     C_R   0.502972 0.819606 0.479554 0.000000
C361  C     C_R   0.572720 0.831506 0.482547 0.000000
N111  N     N_2   0.622204 0.847701 0.440529 0.000000
C362  C     C_R   0.595297 0.826632 0.527366 0.000000
C363  C     C_R   0.548540 0.811941 0.568466 0.000000
C364  C     C_R   0.482427 0.796895 0.566548 0.000000
N112  N     N_R   0.431791 0.783371 0.604110 0.000000
H298  H     H_    0.084344 0.878390 0.557414 0.000000
H299  H     H_    0.126282 0.905682 0.588297 0.000000
H300  H     H_    0.131151 0.803088 0.556368 0.000000
H301  H     H_    0.247787 0.763386 0.550298 0.000000
H302  H     H_    0.331047 0.809278 0.648925 0.000000
H303  H     H_    0.222724 0.860477 0.644834 0.000000
H304  H     H_    0.484691 0.825511 0.444586 0.000000
H305  H     H_    0.600213 0.861888 0.405911 0.000000
H306  H     H_    0.664170 0.821934 0.446614 0.000000
H307  H     H_    0.649265 0.834343 0.531014 0.000000
H308  H     H_    0.563393 0.813328 0.600798 0.000000
N113  N     N_2   0.659333 0.562844 0.699127 0.000000
C365  C     C_R   0.657425 0.612750 0.692157 0.000000
C366  C     C_R   0.595879 0.630829 0.705813 0.000000
C367  C     C_R   0.593675 0.679805 0.698163 0.000000
C368  C     C_R   0.656397 0.705535 0.688701 0.000000
C369  C     C_R   0.716652 0.689474 0.671962 0.000000
C370  C     C_R   0.717410 0.642626 0.673902 0.000000
C371  C     C_R   0.657271 0.752369 0.691358 0.000000
N114  N     N_R   0.593952 0.782384 0.682716 0.000000
C372  C     C_R   0.623284 0.828421 0.668948 0.000000
C373  C     C_R   0.590325 0.875645 0.642986 0.000000
C374  C     C_R   0.631087 0.919382 0.623405 0.000000
N115  N     N_2   0.600660 0.967550 0.590411 0.000000
C375  C     C_R   0.703418 0.915524 0.631981 0.000000
C376  C     C_R   0.736924 0.867834 0.655896 0.000000
C377  C     C_R   0.696674 0.824611 0.673609 0.000000
N116  N     N_R   0.722192 0.776082 0.689821 0.000000
H309  H     H_    0.657316 0.537529 0.737562 0.000000
H310  H     H_    0.701297 0.555444 0.679415 0.000000
H311  H     H_    0.549533 0.607154 0.722147 0.000000
H312  H     H_    0.543394 0.695985 0.703091 0.000000
H313  H     H_    0.762593 0.713615 0.657147 0.000000
H314  H     H_    0.763939 0.630841 0.658867 0.000000
H315  H     H_    0.535688 0.878247 0.633864 0.000000
H316  H     H_    0.545603 0.968751 0.591350 0.000000
H317  H     H_    0.626894 0.998777 0.587126 0.000000
H318  H     H_    0.735301 0.949792 0.616094 0.000000
H319  H     H_    0.793655 0.865143 0.657652 0.000000
N117  N     N_2   0.755026 0.904694 0.894822 0.000000
C378  C     C_R   0.718918 0.946938 0.895110 0.000000
C379  C     C_R   0.759608 0.979592 0.900450 0.000000
C380  C     C_R   0.741363 0.030102 0.878293 0.000000
C381  C     C_R   0.677846 0.047082 0.855531 0.000000
C382  C     C_R   0.629545 0.012234 0.858936 0.000000
C383  C     C_R   0.650600 0.961961 0.878537 0.000000
C384  C     C_R   0.670833 0.100718 0.818566 0.000000
N118  N     N_R   0.734073 0.124794 0.791415 0.000000
C385  C     C_R   0.707885 0.157502 0.745402 0.000000
C386  C     C_R   0.746951 0.183774 0.699751 0.000000
C387  C     C_R   0.712489 0.201411 0.654607 0.000000
N119  N     N_2   0.753340 0.219100 0.608032 0.000000
C388  C     C_R   0.639175 0.195811 0.655427 0.000000
C389  C     C_R   0.599483 0.172230 0.701329 0.000000
C390  C     C_R   0.634516 0.153547 0.746154 0.000000
N120  N     N_R   0.606511 0.121550 0.793489 0.000000
H320  H     H_    0.792657 0.889265 0.922000 0.000000
H321  H     H_    0.783714 0.918656 0.860561 0.000000
H322  H     H_    0.808559 0.965013 0.918440 0.000000
H323  H     H_    0.779970 0.056141 0.875384 0.000000
H324  H     H_    0.577957 0.024152 0.842623 0.000000
H325  H     H_    0.612895 0.936009 0.879234 0.000000
H326  H     H_    0.804233 0.184298 0.698689 0.000000
H327  H     H_    0.726919 0.243641 0.575800 0.000000
H328  H     H_    0.806630 0.224969 0.609569 0.000000
H329  H     H_    0.613067 0.208290 0.620084 0.000000
H330  H     H_    0.543059 0.165901 0.701768 0.000000
N121  N     N_2   0.714091 0.322700 0.651977 0.000000
C391  C     C_R   0.647058 0.300170 0.666663 0.000000
C392  C     C_R   0.633478 0.266837 0.716977 0.000000
C393  C     C_R   0.565490 0.249770 0.734505 0.000000
C394  C     C_R   0.511145 0.266412 0.701642 0.000000
C395  C     C_R   0.525287 0.298222 0.650246 0.000000
C396  C     C_R   0.593538 0.315477 0.632550 0.000000
C397  C     C_R   0.442545 0.242512 0.720000 0.000000
N122  N     N_R   0.437822 0.189272 0.751655 0.000000
C398  C     C_R   0.368079 0.183549 0.755059 0.000000
C399  C     C_R   0.337249 0.140036 0.790840 0.000000
C400  C     C_R   0.265574 0.139610 0.798984 0.000000
N123  N     N_2   0.235848 0.096033 0.840279 0.000000
C401  C     C_R   0.225116 0.182741 0.769887 0.000000
C402  C     C_R   0.257952 0.228711 0.737223 0.000000
C403  C     C_R   0.331385 0.229175 0.729862 0.000000
N124  N     N_R   0.376858 0.269689 0.707746 0.000000
H331  H     H_    0.754452 0.296553 0.655623 0.000000
H332  H     H_    0.713280 0.357237 0.619261 0.000000
H333  H     H_    0.677195 0.253747 0.742138 0.000000
H334  H     H_    0.556447 0.219477 0.772870 0.000000
H335  H     H_    0.483880 0.308555 0.623748 0.000000
H336  H     H_    0.604040 0.341681 0.592533 0.000000
H337  H     H_    0.368900 0.107247 0.814829 0.000000
H338  H     H_    0.274339 0.070225 0.861894 0.000000
H339  H     H_    0.200305 0.105041 0.862222 0.000000
H340  H     H_    0.168257 0.181226 0.775239 0.000000
H341  H     H_    0.226163 0.262691 0.722495 0.000000
N125  N     N_2   0.166374 0.275877 0.821363 0.000000
C404  C     C_R   0.220660 0.238400 0.841701 0.000000
C405  C     C_R   0.289027 0.248694 0.820735 0.000000
C406  C     C_R   0.341504 0.211415 0.838954 0.000000
C407  C     C_R   0.325878 0.163714 0.878400 0.000000
C408  C     C_R   0.258263 0.154520 0.900672 0.000000
C409  C     C_R   0.205486 0.191126 0.882126 0.000000
C410  C     C_R   0.382252 0.127365 0.904647 0.000000
N126  N     N_R   0.389924 0.115843 0.955267 0.000000
C411  C     C_R   0.456744 0.098324 0.961331 0.000000
C412  C     C_R   0.496821 0.092678 0.999797 0.000000
C413  C     C_R   0.565802 0.075606 0.999645 0.000000
N127  N     N_2   0.604796 0.061187 0.043061 0.000000
C414  C     C_R   0.592751 0.066495 0.960076 0.000000
C415  C     C_R   0.552424 0.078024 0.919157 0.000000
C416  C     C_R   0.485093 0.094542 0.919934 0.000000
N128  N     N_R   0.440927 0.112679 0.881145 0.000000
H342  H     H_    0.164823 0.292348 0.782311 0.000000
H343  H     H_    0.118308 0.265125 0.841629 0.000000
H344  H     H_    0.300429 0.284584 0.787371 0.000000
H345  H     H_    0.394720 0.219712 0.821600 0.000000
H346  H     H_    0.244879 0.117029 0.929925 0.000000
H347  H     H_    0.152629 0.182444 0.900051 0.000000
H348  H     H_    0.475352 0.101299 0.029262 0.000000
H349  H     H_    0.658630 0.058210 0.036984 0.000000
H350  H     H_    0.586813 0.076897 0.066039 0.000000
H351  H     H_    0.646978 0.053486 0.959157 0.000000
H352  H     H_    0.570309 0.074158 0.887340 0.000000
N129  N     N_2   0.808707 0.775551 0.382474 0.000000
C417  C     C_R   0.835649 0.741650 0.365328 0.000000
C418  C     C_R   0.791101 0.705220 0.369940 0.000000
C419  C     C_R   0.817894 0.662376 0.369954 0.000000
C420  C     C_R   0.886966 0.661156 0.353910 0.000000
C421  C     C_R   0.931786 0.700942 0.341366 0.000000
C422  C     C_R   0.906755 0.740651 0.349650 0.000000
C423  C     C_R   0.909843 0.614385 0.355829 0.000000
N130  N     N_R   0.886386 0.569077 0.397655 0.000000
C424  C     C_R   0.909348 0.534499 0.382325 0.000000
C425  C     C_R   0.897109 0.482607 0.407012 0.000000
C426  C     C_R   0.926163 0.453276 0.385258 0.000000
N131  N     N_2   0.916105 0.399614 0.410469 0.000000
C427  C     C_R   0.964640 0.476619 0.338454 0.000000
C428  C     C_R   0.973872 0.529386 0.312690 0.000000
C429  C     C_R   0.945616 0.558180 0.335010 0.000000
N132  N     N_R   0.945690 0.610290 0.315400 0.000000
H353  H     H_    0.824711 0.763925 0.418483 0.000000
H354  H     H_    0.753985 0.779813 0.382104 0.000000
H355  H     H_    0.734861 0.708000 0.377105 0.000000
H356  H     H_    0.782791 0.630917 0.379678 0.000000
H357  H     H_    0.986944 0.699434 0.328650 0.000000
H358  H     H_    0.944359 0.768765 0.344960 0.000000
H359  H     H_    0.866234 0.465045 0.442805 0.000000
H360  H     H_    0.921375 0.383287 0.386763 0.000000
H361  H     H_    0.873264 0.387517 0.436844 0.000000
H362  H     H_    0.986883 0.453707 0.321358 0.000000
H363  H     H_    0.002261 0.547324 0.275628 0.000000
N133  N     N_2   0.168461 0.927610 0.137885 0.000000
C430  C     C_R   0.111125 0.893199 0.155058 0.000000
C431  C     C_R   0.122975 0.840742 0.182832 0.000000
C432  C     C_R   0.067173 0.807798 0.206426 0.000000
C433  C     C_R   0.999136 0.827534 0.200516 0.000000
C434  C     C_R   0.986790 0.879192 0.169968 0.000000
C435  C     C_R   0.042359 0.912232 0.147531 0.000000
C436  C     C_R   0.937723 0.795471 0.223126 0.000000
N134  N     N_R   0.934400 0.744410 0.231243 0.000000
C437  C     C_R   0.863818 0.738142 0.238646 0.000000
C438  C     C_R   0.829937 0.694274 0.248944 0.000000
C439  C     C_R   0.761707 0.687470 0.270013 0.000000
N135  N     N_2   0.735050 0.637165 0.297233 0.000000
C440  C     C_R   0.727445 0.727003 0.275489 0.000000
C441  C     C_R   0.762509 0.772177 0.262449 0.000000
C442  C     C_R   0.829445 0.778181 0.241775 0.000000
N136  N     N_R   0.873099 0.817354 0.230895 0.000000
H364  H     H_    0.210277 0.913999 0.161466 0.000000
H365  H     H_    0.152631 0.964072 0.130784 0.000000
H366  H     H_    0.175966 0.824762 0.187122 0.000000
H367  H     H_    0.076755 0.767162 0.230109 0.000000
H368  H     H_    0.932916 0.893240 0.161230 0.000000
H369  H     H_    0.031604 0.952940 0.125893 0.000000
H370  H     H_    0.858699 0.662754 0.248340 0.000000
H371  H     H_    0.696542 0.631775 0.325663 0.000000
H372  H     H_    0.773213 0.608301 0.306605 0.000000
H373  H     H_    0.677252 0.719677 0.296405 0.000000
H374  H     H_    0.742564 0.801285 0.271441 0.000000
N137  N     N_2   0.556024 0.028962 0.355403 0.000000
C443  C     C_R   0.525918 0.985756 0.356397 0.000000
C444  C     C_R   0.468197 0.961851 0.389219 0.000000
C445  C     C_R   0.438154 0.920382 0.389141 0.000000
C446  C     C_R   0.466739 0.901257 0.357075 0.000000
C447  C     C_R   0.525643 0.924414 0.325832 0.000000
C448  C     C_R   0.554131 0.967071 0.324570 0.000000
C449  C     C_R   0.427492 0.863250 0.350045 0.000000
N138  N     N_R   0.366221 0.845134 0.382451 0.000000
C450  C     C_R   0.316437 0.870838 0.347910 0.000000
C451  C     C_R   0.272757 0.907625 0.351498 0.000000
C452  C     C_R   0.242494 0.946583 0.308862 0.000000
N139  N     N_2   0.206486 0.987843 0.312313 0.000000
C453  C     C_R   0.255329 0.948353 0.261948 0.000000
C454  C     C_R   0.308291 0.917151 0.256997 0.000000
C455  C     C_R   0.344505 0.884704 0.299383 0.000000
N140  N     N_R   0.415974 0.878003 0.298904 0.000000
H375  H     H_    0.545057 0.031842 0.388209 0.000000
H376  H     H_    0.608157 0.035798 0.340652 0.000000
H377  H     H_    0.445203 0.976004 0.414470 0.000000
H378  H     H_    0.392251 0.903473 0.415045 0.000000
H379  H     H_    0.548947 0.908645 0.302521 0.000000
H380  H     H_    0.599476 0.985485 0.298972 0.000000
H381  H     H_    0.279039 0.914955 0.382401 0.000000
H382  H     H_    0.213085 0.022529 0.279723 0.000000
H383  H     H_    0.213599 0.989001 0.345573 0.000000
H384  H     H_    0.232898 0.978602 0.227863 0.000000
H385  H     H_    0.324568 0.921504 0.220008 0.000000
N141  N     N_2   0.421851 0.920484 0.979472 0.000000
C456  C     C_R   0.422614 0.932825 0.019355 0.000000
C457  C     C_R   0.369091 0.916211 0.057676 0.000000
C458  C     C_R   0.360443 0.938333 0.089257 0.000000
C459  C     C_R   0.410004 0.972912 0.085364 0.000000
C460  C     C_R   0.471866 0.977826 0.056534 0.000000
C461  C     C_R   0.475724 0.962654 0.019674 0.000000
C462  C     C_R   0.402139 0.000098 0.115254 0.000000
N142  N     N_R   0.381287 0.052677 0.094694 0.000000
C463  C     C_R   0.385111 0.058927 0.136349 0.000000
C464  C     C_R   0.381684 0.104504 0.137769 0.000000
C465  C     C_R   0.390516 0.103826 0.183766 0.000000
N143  N     N_2   0.389472 0.150343 0.185966 0.000000
C466  C     C_R   0.403616 0.057653 0.227280 0.000000
C467  C     C_R   0.411612 0.012414 0.224551 0.000000
C468  C     C_R   0.403212 0.013827 0.178516 0.000000
N144  N     N_R   0.418818 0.975522 0.166629 0.000000
H386  H     H_    0.423597 0.881584 0.992449 0.000000
H387  H     H_    0.458066 0.940953 0.949617 0.000000
H388  H     H_    0.330311 0.889972 0.059290 0.000000
H389  H     H_    0.314957 0.929333 0.115987 0.000000
H390  H     H_    0.517463 0.992353 0.064500 0.000000
H391  H     H_    0.521794 0.971327 0.993252 0.000000
H392  H     H_    0.377883 0.140019 0.103185 0.000000
H393  H     H_    0.376469 0.146399 0.221726 0.000000
H394  H     H_    0.365754 0.180904 0.155937 0.000000
H395  H     H_    0.411546 0.057203 0.263013 0.000000
H396  H     H_    0.426809 0.977474 0.257319 0.000000
N145  N     N_2   0.701418 0.755675 0.130917 0.000000
C469  C     C_R   0.687691 0.787667 0.153159 0.000000
C470  C     C_R   0.735731 0.824576 0.143840 0.000000
C471  C     C_R   0.723821 0.856329 0.164833 0.000000
C472  C     C_R   0.663259 0.851148 0.195822 0.000000
C473  C     C_R   0.615582 0.813479 0.206339 0.000000
C474  C     C_R   0.626825 0.782668 0.183835 0.000000
C475  C     C_R   0.653883 0.883945 0.219193 0.000000
N146  N     N_R   0.714727 0.905030 0.226921 0.000000
C476  C     C_R   0.684908 0.949403 0.222836 0.000000
C477  C     C_R   0.720109 0.989636 0.221769 0.000000
C478  C     C_R   0.683289 0.035259 0.209065 0.000000
N147  N     N_2   0.717077 0.076232 0.209701 0.000000
C479  C     C_R   0.614011 0.041368 0.193550 0.000000
C480  C     C_R   0.579760 0.000287 0.195537 0.000000
C481  C     C_R   0.613277 0.953195 0.214791 0.000000
N148  N     N_R   0.587879 0.909661 0.218072 0.000000
H397  H     H_    0.716490 0.776825 0.092821 0.000000
H398  H     H_    0.741667 0.729463 0.149112 0.000000
H399  H     H_    0.784224 0.827203 0.122007 0.000000
H400  H     H_    0.765732 0.881981 0.160107 0.000000
H401  H     H_    0.568913 0.808600 0.231407 0.000000
H402  H     H_    0.585776 0.756788 0.188859 0.000000
H403  H     H_    0.775254 0.985589 0.230123 0.000000
H404  H     H_    0.690522 0.110772 0.190086 0.000000
H405  H     H_    0.771875 0.076392 0.203392 0.000000
H406  H     H_    0.586646 0.078346 0.179019 0.000000
H407  H     H_    0.532242 0.006913 0.176427 0.000000
N149  N     N_2   0.629581 0.797472 0.317176 0.000000
C482  C     C_R   0.567470 0.771660 0.342365 0.000000
C483  C     C_R   0.545430 0.730085 0.338513 0.000000
C484  C     C_R   0.494986 0.698647 0.373366 0.000000
C485  C     C_R   0.460448 0.713577 0.406267 0.000000
C486  C     C_R   0.478478 0.756928 0.406160 0.000000
C487  C     C_R   0.535737 0.783431 0.377364 0.000000
C488  C     C_R   0.407742 0.683650 0.444461 0.000000
N150  N     N_R   0.406785 0.630169 0.465527 0.000000
C489  C     C_R   0.357895 0.619414 0.503345 0.000000
C490  C     C_R   0.327919 0.573658 0.531067 0.000000
C491  C     C_R   0.279981 0.567351 0.569039 0.000000
N151  N     N_2   0.246023 0.520112 0.594695 0.000000
C492  C     C_R   0.262873 0.607876 0.579032 0.000000
C493  C     C_R   0.289856 0.656381 0.547237 0.000000
C494  C     C_R   0.334991 0.661696 0.507593 0.000000
N152  N     N_R   0.363109 0.705069 0.469550 0.000000
H408  H     H_    0.671044 0.774275 0.336145 0.000000
H409  H     H_    0.632762 0.831408 0.318374 0.000000
H410  H     H_    0.567444 0.720677 0.309854 0.000000
H411  H     H_    0.481909 0.663968 0.373379 0.000000
H412  H     H_    0.453251 0.766402 0.433669 0.000000
H413  H     H_    0.555619 0.813592 0.382432 0.000000
H414  H     H_    0.336190 0.544632 0.520332 0.000000
H415  H     H_    0.191803 0.523434 0.591774 0.000000
H416  H     H_    0.269560 0.492424 0.586901 0.000000
H417  H     H_    0.226410 0.603008 0.610291 0.000000
H418  H     H_    0.274719 0.688706 0.553075 0.000000
N153  N     N_2   0.476597 0.573922 0.678911 0.000000
C495  C     C_R   0.458840 0.547519 0.653015 0.000000
C496  C     C_R   0.418913 0.503882 0.677912 0.000000
C497  C     C_R   0.407222 0.475628 0.654120 0.000000
C498  C     C_R   0.433095 0.490743 0.605473 0.000000
C499  C     C_R   0.475707 0.532937 0.581383 0.000000
C500  C     C_R   0.487540 0.562150 0.604576 0.000000
C501  C     C_R   0.414855 0.463206 0.578666 0.000000
N154  N     N_R   0.386775 0.412765 0.603714 0.000000
C502  C     C_R   0.384954 0.404825 0.562601 0.000000
C503  C     C_R   0.375743 0.358853 0.563284 0.000000
C504  C     C_R   0.384503 0.357462 0.517320 0.000000
N155  N     N_2   0.389248 0.309865 0.517260 0.000000
C505  C     C_R   0.394703 0.402471 0.471336 0.000000
C506  C     C_R   0.405473 0.448425 0.470945 0.000000
C507  C     C_R   0.404455 0.448028 0.517099 0.000000
N156  N     N_R   0.424465 0.486642 0.524822 0.000000
H419  H     H_    0.446117 0.564656 0.712120 0.000000
H420  H     H_    0.486511 0.612240 0.655244 0.000000
H421  H     H_    0.399426 0.490315 0.716690 0.000000
H422  H     H_    0.380766 0.440278 0.674084 0.000000
H423  H     H_    0.500560 0.542107 0.544787 0.000000
H424  H     H_    0.522596 0.594525 0.586367 0.000000
H425  H     H_    0.368743 0.324122 0.599107 0.000000
H426  H     H_    0.367733 0.309617 0.486594 0.000000
H427  H     H_    0.383548 0.277718 0.552457 0.000000
H428  H     H_    0.400349 0.400928 0.435804 0.000000
H429  H     H_    0.418943 0.482680 0.435608 0.000000
N157  N     N_2   0.655030 0.385779 0.399830 0.000000
C508  C     C_R   0.652546 0.426214 0.412185 0.000000
C509  C     C_R   0.590686 0.436226 0.434104 0.000000
C510  C     C_R   0.589650 0.473919 0.448806 0.000000
C511  C     C_R   0.649645 0.502715 0.440734 0.000000
C512  C     C_R   0.710253 0.494478 0.416273 0.000000
C513  C     C_R   0.712477 0.455310 0.403475 0.000000
C514  C     C_R   0.647198 0.542502 0.456892 0.000000
N158  N     N_R   0.580633 0.565141 0.462199 0.000000
C515  C     C_R   0.604181 0.600494 0.472967 0.000000
C516  C     C_R   0.564595 0.633061 0.485404 0.000000
C517  C     C_R   0.596291 0.675205 0.481550 0.000000
N159  N     N_2   0.556910 0.710106 0.493065 0.000000
C518  C     C_R   0.666849 0.683182 0.465820 0.000000
C519  C     C_R   0.707550 0.642863 0.466792 0.000000
C520  C     C_R   0.676582 0.601052 0.471715 0.000000
N160  N     N_R   0.709498 0.563072 0.465131 0.000000
H430  H     H_    0.616939 0.358185 0.419580 0.000000
H431  H     H_    0.705938 0.372212 0.396963 0.000000
H432  H     H_    0.543686 0.413555 0.441224 0.000000
H433  H     H_    0.542055 0.480152 0.467609 0.000000
H434  H     H_    0.756319 0.518232 0.407800 0.000000
H435  H     H_    0.761033 0.447667 0.386391 0.000000
H436  H     H_    0.511443 0.625755 0.499946 0.000000
H437  H     H_    0.587318 0.737557 0.493650 0.000000
H438  H     H_    0.513876 0.695327 0.518965 0.000000
H439  H     H_    0.691773 0.718350 0.458186 0.000000
H440  H     H_    0.762382 0.645528 0.459333 0.000000
N161  N     N_2   0.183030 0.284837 0.502194 0.000000
C521  C     C_R   0.179392 0.298933 0.541203 0.000000
C522  C     C_R   0.229132 0.280056 0.577973 0.000000
C523  C     C_R   0.226545 0.294651 0.615521 0.000000
C524  C     C_R   0.170470 0.324553 0.619845 0.000000
C525  C     C_R   0.121262 0.343627 0.582426 0.000000
C526  C     C_R   0.126297 0.331886 0.542808 0.000000
C527  C     C_R   0.163428 0.340464 0.660018 0.000000
N162  N     N_R   0.222708 0.356217 0.676161 0.000000
C528  C     C_R   0.188629 0.388979 0.689693 0.000000
C529  C     C_R   0.220107 0.427943 0.692373 0.000000
C530  C     C_R   0.177419 0.466614 0.692385 0.000000
N163  N     N_2   0.206856 0.511305 0.688243 0.000000
C531  C     C_R   0.105522 0.465093 0.689290 0.000000
C532  C     C_R   0.072886 0.423801 0.691873 0.000000
C533  C     C_R   0.115883 0.387175 0.689375 0.000000
N164  N     N_R   0.095707 0.355582 0.672708 0.000000
H441  H     H_    0.211055 0.251055 0.511081 0.000000
H442  H     H_    0.135361 0.289301 0.485160 0.000000
H443  H     H_    0.270530 0.253622 0.577556 0.000000
H444  H     H_    0.268847 0.281942 0.641170 0.000000
H445  H     H_    0.076939 0.367460 0.584116 0.000000
H446  H     H_    0.086592 0.347137 0.514257 0.000000
H447  H     H_    0.276158 0.429007 0.692690 0.000000
H448  H     H_    0.172339 0.542309 0.678316 0.000000
H449  H     H_    0.260212 0.517534 0.676934 0.000000
H450  H     H_    0.075318 0.498708 0.679875 0.000000
H451  H     H_    0.017665 0.426949 0.683342 0.000000
N165  N     N_2   0.117388 0.157069 0.213775 0.000000
C534  C     C_R   0.126655 0.149302 0.170655 0.000000
C535  C     C_R   0.177186 0.114410 0.169577 0.000000
C536  C     C_R   0.182869 0.104327 0.128961 0.000000
C537  C     C_R   0.142909 0.132395 0.086647 0.000000
C538  C     C_R   0.097321 0.170826 0.086105 0.000000
C539  C     C_R   0.087856 0.178378 0.128250 0.000000
C540  C     C_R   0.153150 0.119744 0.044459 0.000000
N166  N     N_R   0.224071 0.110312 0.031143 0.000000
C541  C     C_R   0.214069 0.070291 0.024598 0.000000
C542  C     C_R   0.268109 0.042271 0.017312 0.000000
C543  C     C_R   0.250720 0.008964 0.001617 0.000000
N167  N     N_2   0.302532 0.996284 0.972933 0.000000
C544  C     C_R   0.182684 0.989766 0.013787 0.000000
C545  C     C_R   0.129204 0.012842 0.031366 0.000000
C546  C     C_R   0.143816 0.059151 0.027377 0.000000
N168  N     N_R   0.099920 0.092559 0.035686 0.000000
H452  H     H_    0.134327 0.126485 0.247039 0.000000
H453  H     H_    0.068655 0.173423 0.216721 0.000000
H454  H     H_    0.210971 0.093464 0.201287 0.000000
H455  H     H_    0.220045 0.074650 0.130284 0.000000
H456  H     H_    0.067106 0.194859 0.053927 0.000000
H457  H     H_    0.050339 0.207650 0.127548 0.000000
H458  H     H_    0.322795 0.049215 0.018392 0.000000
H459  H     H_    0.284297 0.982466 0.950710 0.000000
H460  H     H_    0.342217 0.022986 0.955471 0.000000
H461  H     H_    0.172793 0.957551 0.008636 0.000000
H462  H     H_    0.076971 0.996758 0.045392 0.000000
N169  N     N_2   0.820631 0.009680 0.468805 0.000000
C547  C     C_R   0.840884 0.957203 0.495713 0.000000
C548  C     C_R   0.793642 0.921756 0.531198 0.000000
C549  C     C_R   0.811091 0.869794 0.554516 0.000000
C550  C     C_R   0.878752 0.853911 0.546264 0.000000
C551  C     C_R   0.927850 0.889909 0.514874 0.000000
C552  C     C_R   0.908248 0.941046 0.487202 0.000000
C553  C     C_R   0.898956 0.799539 0.570582 0.000000
N170  N     N_R   0.927362 0.775099 0.542385 0.000000
C554  C     C_R   0.931992 0.726763 0.580611 0.000000
C555  C     C_R   0.950383 0.685327 0.574852 0.000000
C556  C     C_R   0.927564 0.638232 0.611928 0.000000
N171  N     N_2   0.924234 0.597412 0.600770 0.000000
C557  C     C_R   0.903335 0.632308 0.658774 0.000000
C558  C     C_R   0.894190 0.673944 0.666963 0.000000
C559  C     C_R   0.906272 0.721610 0.626521 0.000000
N172  N     N_R   0.886266 0.767024 0.623440 0.000000
H463  H     H_    0.779343 0.020345 0.486642 0.000000
H464  H     H_    0.862978 0.034461 0.453702 0.000000
H465  H     H_    0.740112 0.934170 0.536745 0.000000
H466  H     H_    0.771651 0.841673 0.578555 0.000000
H467  H     H_    0.982284 0.877553 0.514125 0.000000
H468  H     H_    0.946884 0.968731 0.461171 0.000000
H469  H     H_    0.980496 0.690077 0.541674 0.000000
H470  H     H_    0.924258 0.560896 0.630954 0.000000
H471  H     H_    0.950204 0.603278 0.567181 0.000000
H472  H     H_    0.891356 0.594922 0.689038 0.000000
H473  H     H_    0.867502 0.668669 0.701553 0.000000
N173  N     N_2   0.755917 0.194783 0.184078 0.000000
C560  C     C_R   0.785141 0.195946 0.138651 0.000000
C561  C     C_R   0.858044 0.196769 0.129367 0.000000
C562  C     C_R   0.886477 0.200609 0.083935 0.000000
C563  C     C_R   0.842804 0.205554 0.046266 0.000000
C564  C     C_R   0.769863 0.207883 0.054583 0.000000
C565  C     C_R   0.741181 0.199387 0.101918 0.000000
C566  C     C_R   0.877513 0.213783 0.997218 0.000000
N174  N     N_R   0.938653 0.181703 0.002127 0.000000
C567  C     C_R   0.987725 0.217807 0.976087 0.000000
C568  C     C_R   0.057200 0.209665 0.965465 0.000000
C569  C     C_R   0.099291 0.251211 0.939132 0.000000
N175  N     N_2   0.174191 0.245209 0.936896 0.000000
C570  C     C_R   0.066363 0.297721 0.910591 0.000000
C571  C     C_R   0.996475 0.306760 0.919441 0.000000
C572  C     C_R   0.958283 0.266139 0.953726 0.000000
N176  N     N_R   0.887073 0.265984 0.959559 0.000000
H474  H     H_    0.701886 0.187850 0.191496 0.000000
H475  H     H_    0.788070 0.176881 0.214702 0.000000
H476  H     H_    0.893236 0.195548 0.157134 0.000000
H477  H     H_    0.943769 0.202933 0.076949 0.000000
H478  H     H_    0.734916 0.216985 0.024074 0.000000
H479  H     H_    0.683788 0.198287 0.109125 0.000000
H480  H     H_    0.076454 0.173187 0.972191 0.000000
H481  H     H_    0.201567 0.278317 0.925063 0.000000
H482  H     H_    0.193551 0.214019 0.968528 0.000000
H483  H     H_    0.090283 0.323861 0.875696 0.000000
H484  H     H_    0.971328 0.342873 0.896005 0.000000
N177  N     N_2   0.060274 0.142434 0.870618 0.000000
C573  C     C_R   0.024440 0.189716 0.850815 0.000000
C574  C     C_R   0.981069 0.201827 0.881985 0.000000
C575  C     C_R   0.948783 0.248823 0.863721 0.000000
C576  C     C_R   0.966602 0.285861 0.816243 0.000000
C577  C     C_R   0.012111 0.274359 0.785171 0.000000
C578  C     C_R   0.037311 0.225546 0.801037 0.000000
C579  C     C_R   0.928890 0.334256 0.794912 0.000000
N178  N     N_R   0.888500 0.354922 0.823223 0.000000
C580  C     C_R   0.868726 0.399800 0.784136 0.000000
C581  C     C_R   0.837164 0.439192 0.789234 0.000000
C582  C     C_R   0.824454 0.483624 0.745743 0.000000
N179  N     N_2   0.801743 0.526082 0.751014 0.000000
C583  C     C_R   0.837366 0.487274 0.697839 0.000000
C584  C     C_R   0.872196 0.447572 0.693034 0.000000
C585  C     C_R   0.890203 0.404474 0.737013 0.000000
N180  N     N_R   0.929175 0.363048 0.741671 0.000000
H485  H     H_    0.066043 0.125693 0.909359 0.000000
H486  H     H_    0.107184 0.147463 0.849745 0.000000
H487  H     H_    0.971597 0.174730 0.920761 0.000000
H488  H     H_    0.905582 0.255676 0.884939 0.000000
H489  H     H_    0.027237 0.302563 0.747808 0.000000
H490  H     H_    0.068422 0.217055 0.774376 0.000000
H491  H     H_    0.824067 0.435956 0.826489 0.000000
H492  H     H_    0.795090 0.557463 0.716727 0.000000
H493  H     H_    0.835882 0.531967 0.773077 0.000000
H494  H     H_    0.821629 0.521529 0.664009 0.000000
H495  H     H_    0.885859 0.451648 0.655968 0.000000
N181  N     N_2   0.020433 0.875484 0.992020 0.000000
C586  C     C_R   0.001974 0.927712 0.969553 0.000000
C587  C     C_R   0.034398 0.958122 0.984115 0.000000
C588  C     C_R   0.020172 0.010227 0.960643 0.000000
C589  C     C_R   0.968146 0.030389 0.927557 0.000000
C590  C     C_R   0.931845 0.999240 0.915565 0.000000
C591  C     C_R   0.948992 0.947806 0.935786 0.000000
C592  C     C_R   0.936685 0.079073 0.918460 0.000000
N182  N     N_R   0.933597 0.091293 0.959280 0.000000
C593  C     C_R   0.865968 0.108327 0.956362 0.000000
C594  C     C_R   0.829491 0.115547 0.993629 0.000000
C595  C     C_R   0.758665 0.128054 0.988267 0.000000
N183  N     N_2   0.719279 0.135150 0.026330 0.000000
C596  C     C_R   0.726071 0.131270 0.946830 0.000000
C597  C     C_R   0.762353 0.122124 0.910300 0.000000
C598  C     C_R   0.833600 0.110720 0.915403 0.000000
N184  N     N_R   0.878707 0.096871 0.886418 0.000000
H496  H     H_    0.074917 0.869647 0.990375 0.000000
H497  H     H_    0.989272 0.855133 0.981455 0.000000
H498  H     H_    0.066435 0.938993 0.016510 0.000000
H499  H     H_    0.044753 0.037049 0.968269 0.000000
H500  H     H_    0.892711 0.015958 0.887538 0.000000
H501  H     H_    0.921346 0.923819 0.924693 0.000000
H502  H     H_    0.853873 0.108727 0.027905 0.000000
H503  H     H_    0.666121 0.145109 0.020438 0.000000
H504  H     H_    0.733231 0.110482 0.063142 0.000000
H505  H     H_    0.670654 0.138930 0.943581 0.000000
H506  H     H_    0.735226 0.126142 0.878241 0.000000
N185  N     N_2   0.736533 0.294112 0.856657 0.000000
C599  C     C_R   0.772658 0.278898 0.823712 0.000000
C600  C     C_R   0.803524 0.231767 0.844897 0.000000
C601  C     C_R   0.841624 0.215891 0.814809 0.000000
C602  C     C_R   0.851504 0.247547 0.764707 0.000000
C603  C     C_R   0.819770 0.295041 0.741676 0.000000
C604  C     C_R   0.779568 0.310827 0.771575 0.000000
C605  C     C_R   0.904126 0.231554 0.739001 0.000000
N186  N     N_R   0.907490 0.180663 0.747932 0.000000
C606  C     C_R   0.950120 0.186515 0.707151 0.000000
C607  C     C_R   0.959154 0.151922 0.688838 0.000000
C608  C     C_R   0.989221 0.168896 0.639805 0.000000
N187  N     N_2   0.994067 0.135545 0.618328 0.000000
C609  C     C_R   0.011265 0.219419 0.610749 0.000000
C610  C     C_R   0.002749 0.253585 0.630016 0.000000
C611  C     C_R   0.973142 0.236780 0.678445 0.000000
N188  N     N_R   0.948001 0.266863 0.699123 0.000000
H507  H     H_    0.683625 0.300133 0.849222 0.000000
H508  H     H_    0.744419 0.269398 0.894570 0.000000
H509  H     H_    0.806136 0.210653 0.885613 0.000000
H510  H     H_    0.876806 0.183747 0.830350 0.000000
H511  H     H_    0.830896 0.321410 0.701708 0.000000
H512  H     H_    0.761710 0.350100 0.753881 0.000000
H513  H     H_    0.939039 0.113626 0.710540 0.000000
H514  H     H_    0.997707 0.154015 0.578983 0.000000
H515  H     H_    0.959380 0.105222 0.635491 0.000000
H516  H     H_    0.031933 0.233129 0.571733 0.000000
H517  H     H_    0.009187 0.293830 0.605190 0.000000
N189  N     N_2   0.073640 0.562794 0.569105 0.000000
C612  C     C_R   0.108455 0.609484 0.549419 0.000000
C613  C     C_R   0.149791 0.625742 0.505383 0.000000
C614  C     C_R   0.171856 0.675805 0.479653 0.000000
C615  C     C_R   0.150828 0.707794 0.499436 0.000000
C616  C     C_R   0.120882 0.688851 0.547789 0.000000
C617  C     C_R   0.100584 0.639055 0.573117 0.000000
C618  C     C_R   0.150573 0.762134 0.469373 0.000000
N190  N     N_R   0.211851 0.790444 0.464047 0.000000
C619  C     C_R   0.179981 0.835388 0.455969 0.000000
C620  C     C_R   0.210258 0.873920 0.460934 0.000000
C621  C     C_R   0.168327 0.916649 0.453195 0.000000
N191  N     N_2   0.198451 0.957970 0.455815 0.000000
C622  C     C_R   0.096677 0.918831 0.442848 0.000000
C623  C     C_R   0.065088 0.876761 0.444395 0.000000
C624  C     C_R   0.107005 0.835057 0.452235 0.000000
N192  N     N_R   0.084086 0.788787 0.461426 0.000000
H518  H     H_    0.044379 0.562185 0.541659 0.000000
H519  H     H_    0.045231 0.552482 0.602871 0.000000
H520  H     H_    0.161768 0.598813 0.491465 0.000000
H521  H     H_    0.200282 0.690493 0.442987 0.000000
H522  H     H_    0.107486 0.714055 0.564039 0.000000
H523  H     H_    0.073097 0.625820 0.608980 0.000000
H524  H     H_    0.265942 0.871208 0.469716 0.000000
H525  H     H_    0.161562 0.980743 0.463339 0.000000
H526  H     H_    0.244113 0.948243 0.476057 0.000000
H527  H     H_    0.064350 0.952453 0.436265 0.000000
H528  H     H_    0.008354 0.875573 0.441452 0.000000

loop_
_geom_bond_atom_site_label_1
_geom_bond_atom_site_label_2
_geom_bond_distance
_geom_bond_site_symmetry_2
_ccdc_geom_bond_type
Zn1   N4    2.283 .      S
Zn1   N10   2.237 .      S
Zn1   N170  2.247 .      S
Zn1   N192  2.296 1_655  S
Zn2   N2    2.287 .      S
Zn2   N6    2.294 .      S
Zn2   N130  2.232 .      S
Zn2   N160  2.355 .      S
Zn3   N12   2.273 .      S
Zn3   N14   2.278 .      S
Zn3   N136  2.282 .      S
Zn3   N146  2.296 .      S
Zn4   N16   2.228 .      S
Zn4   N168  2.332 1_655  S
Zn4   N174  2.285 .      S
Zn4   N182  2.293 1_554  S
Zn5   N8    2.249 .      S
Zn5   N164  2.247 1_655  S
Zn5   N180  2.262 .      S
Zn5   N188  2.271 .      S
Zn6   N18   2.182 .      S
Zn6   N24   2.225 1_554  S
Zn6   N28   2.274 .      S
Zn6   N32   2.369 1_554  S
Zn7   N20   2.292 .      S
Zn7   N36   2.267 1_554  S
Zn7   N40   2.270 .      S
Zn7   N44   2.239 .      S
Zn8   N22   2.211 .      S
Zn8   N48   2.245 .      S
Zn8   N50   2.211 .      S
Zn8   N54   2.252 .      S
Zn9   N26   2.124 .      S
Zn9   N58   2.212 .      S
Zn9   N64   2.249 .      S
Zn9   N66   2.179 .      S
Zn10  N30   2.239 .      S
Zn10  N70   2.191 .      S
Zn10  N74   2.277 .      S
Zn10  N78   2.336 .      S
Zn11  N42   2.165 .      S
Zn11  N52   2.272 1_655  S
Zn11  N84   2.307 .      S
Zn11  N86   2.366 .      S
Zn12  N56   2.240 .      S
Zn12  N92   2.303 .      S
Zn12  N96   2.193 .      S
Zn12  N100  2.300 .      S
Zn13  N34   2.231 .      S
Zn13  N72   2.226 1_655  S
Zn13  N104  2.293 .      S
Zn13  N108  2.251 .      S
Zn14  N46   2.251 .      S
Zn14  N76   2.145 .      S
Zn14  N112  2.323 .      S
Zn14  N114  2.343 .      S
Zn15  N80   2.374 .      S
Zn15  N120  2.289 .      S
Zn15  N122  2.178 .      S
Zn15  N128  2.310 .      S
Zn16  N38   2.272 .      S
Zn16  N60   2.305 1_655  S
Zn16  N132  2.233 .      S
Zn16  N134  2.235 .      S
Zn17  N62   2.187 .      S
Zn17  N140  2.187 .      S
Zn17  N144  2.229 .      S
Zn17  N148  2.292 .      S
Zn18  N68   2.209 .      S
Zn18  N150  2.218 .      S
Zn18  N156  2.293 .      S
Zn18  N158  2.259 .      S
Zn19  N90   2.344 .      S
Zn19  N124  2.240 .      S
Zn19  N154  2.333 .      S
Zn19  N162  2.255 .      S
Zn20  N94   2.179 .      S
Zn20  N126  2.200 1_554  S
Zn20  N142  2.259 .      S
Zn20  N166  2.198 .      S
Zn21  N82   2.300 .      S
Zn21  N106  2.244 .      S
Zn21  N116  2.322 .      S
Zn21  N172  2.202 .      S
Zn22  N88   2.324 .      S
Zn22  N98   2.372 .      S
Zn22  N176  2.272 .      S
Zn22  N178  2.304 .      S
Zn23  N102  2.311 .      S
Zn23  N118  2.260 .      S
Zn23  N184  2.345 .      S
Zn23  N186  2.242 .      S
Zn24  N110  2.340 .      S
Zn24  N138  2.272 .      S
Zn24  N152  2.249 .      S
Zn24  N190  2.269 .      S
N1    C1    1.405 .      S
N1    H1    1.025 .      S
N1    H2    1.021 .      S
C2    H3    1.079 .      S
C3    H4    1.081 .      S
C4    C7    1.459 .      S
C5    H5    1.078 .      S
C6    H6    1.077 .      S
C9    H7    1.070 .      S
C10   N3    1.403 .      S
N3    H8    1.024 .      S
N3    H9    1.026 .      S
C11   H10   1.028 .      S
C12   H11   1.074 .      S
N5    C14   1.408 .      S
N5    H12   1.028 .      S
N5    H13   1.026 .      S
C15   H14   1.071 .      S
C16   H15   1.059 .      S
C17   C20   1.465 1_455  S
C18   H16   1.066 1_455  S
C19   H17   1.076 .      S
C20   C17   1.465 1_655  S
C22   H18   1.060 .      S
C23   N7    1.400 .      S
N7    H19   1.028 .      S
N7    H20   1.025 .      S
C24   H21   1.073 .      S
C25   H22   1.058 .      S
H16   C18   1.066 1_655  S
N9    C27   1.398 1_545  S
N9    H23   1.028 .      S
N9    H24   1.027 .      S
C27   N9    1.398 1_565  S
C28   H25   1.067 .      S
C29   H26   1.073 .      S
C30   C33   1.448 .      S
C31   H27   1.076 .      S
C32   H28   1.081 .      S
C35   H29   1.065 .      S
C36   N11   1.400 .      S
N11   H30   1.029 .      S
N11   H31   1.017 .      S
C37   H32   1.071 .      S
C38   H33   1.037 .      S
N13   C40   1.400 .      S
N13   H34   1.025 .      S
N13   H35   1.018 1_554  S
C41   H36   1.081 .      S
C42   H37   1.047 .      S
C43   C46   1.445 .      S
C44   H38   1.071 1_565  S
C45   H39   1.075 1_564  S
C48   H40   1.072 .      S
C49   N15   1.411 .      S
N15   H41   1.029 .      S
N15   H42   1.028 .      S
C50   H43   1.079 .      S
C51   H44   1.073 .      S
H35   N13   1.018 1_556  S
H38   C44   1.071 1_545  S
H39   C45   1.075 1_546  S
N17   C53   1.408 .      S
N17   H45   1.029 .      S
N17   H46   1.029 .      S
C54   H47   1.081 .      S
C55   H48   1.066 .      S
C56   C59   1.500 .      S
C57   H49   1.078 .      S
C58   H50   1.076 .      S
C61   H51   1.068 .      S
C62   N19   1.403 .      S
N19   H52   1.026 .      S
N19   H53   1.028 .      S
C63   H54   1.074 .      S
C64   H55   1.057 .      S
N21   C66   1.406 .      S
N21   H56   1.027 .      S
N21   H57   1.022 .      S
C67   H58   1.074 .      S
C68   H59   1.069 .      S
C69   C72   1.453 .      S
C70   H60   1.062 1_554  S
C71   H61   1.076 .      S
C74   H62   1.041 .      S
C75   N23   1.412 .      S
N23   H63   1.026 .      S
N23   H64   1.028 .      S
C76   H65   1.063 .      S
C77   H66   1.050 .      S
N24   Zn6   2.225 1_556  S
H60   C70   1.062 1_556  S
N25   C79   1.410 .      S
N25   H67   1.029 .      S
N25   H68   1.029 .      S
C80   H69   1.081 .      S
C81   H70   1.069 .      S
C82   C85   1.473 .      S
C83   H71   1.069 .      S
C84   H72   1.081 .      S
C87   H73   1.062 .      S
C88   N27   1.389 .      S
N27   H74   1.023 .      S
N27   H75   1.027 .      S
C89   H76   1.077 .      S
C90   H77   1.015 .      S
N29   C92   1.411 .      S
N29   H78   1.029 .      S
N29   H79   1.020 .      S
C93   H80   1.071 .      S
C94   H81   1.051 .      S
C95   C98   1.465 .      S
C96   H82   1.054 .      S
C97   H83   1.063 .      S
C100  H84   1.081 .      S
C101  N31   1.388 .      S
N31   H85   1.014 .      S
N31   H86   1.019 .      S
C102  H87   1.074 .      S
C103  H88   1.061 .      S
N32   Zn6   2.369 1_556  S
N33   C105  1.398 .      S
N33   H89   1.026 .      S
N33   H90   1.009 .      S
C106  H91   1.065 .      S
C107  H92   1.046 .      S
C108  C111  1.465 .      S
C109  H93   1.050 .      S
C110  H94   1.067 .      S
C113  H95   1.065 .      S
C114  N35   1.389 .      S
N35   H96   1.026 .      S
N35   H97   1.025 1_556  S
C115  H98   1.067 .      S
C116  H99   1.042 .      S
N36   Zn7   2.267 1_556  S
H97   N35   1.025 1_554  S
N37   C118  1.380 .      S
N37   H100  1.024 .      S
N37   H101  1.024 .      S
C119  H102  1.064 .      S
C120  H103  1.051 .      S
C121  C124  1.434 .      S
C122  H104  1.063 .      S
C123  H105  1.068 .      S
C126  H106  1.066 .      S
C127  N39   1.407 .      S
N39   H107  1.029 .      S
N39   H108  1.025 .      S
C128  H109  1.081 .      S
C129  H110  1.057 .      S
N41   C131  1.410 .      S
N41   H111  1.029 .      S
N41   H112  1.029 .      S
C132  H113  1.077 .      S
C133  H114  1.057 .      S
C134  C137  1.484 1_454  S
C135  H115  1.055 1_455  S
C136  H116  1.081 .      S
C137  C134  1.484 1_656  S
C139  H117  1.050 .      S
C140  N43   1.410 .      S
N43   H118  1.028 .      S
N43   H119  1.029 .      S
C141  H120  1.078 .      S
C142  H121  1.041 .      S
H115  C135  1.055 1_655  S
N45   C144  1.396 .      S
N45   H122  1.017 .      S
N45   H123  1.021 .      S
C145  H124  1.065 .      S
C146  H125  1.062 .      S
C147  C150  1.417 .      S
C148  H126  1.079 .      S
C149  H127  1.072 .      S
C152  H128  1.065 .      S
C153  N47   1.388 .      S
N47   H129  1.024 .      S
N47   H130  1.029 .      S
C154  H131  1.076 .      S
C155  H132  1.058 .      S
N49   C157  1.395 .      S
N49   H133  1.020 .      S
N49   H134  1.029 .      S
C158  H135  1.081 .      S
C159  H136  1.079 .      S
C160  C163  1.440 .      S
C161  H137  1.072 .      S
C162  H138  1.069 .      S
C165  H139  1.056 1_556  S
C166  N51   1.409 .      S
N51   H140  1.029 .      S
N51   H141  1.029 .      S
C167  H142  1.081 .      S
C168  H143  1.058 .      S
N52   Zn11  2.272 1_455  S
H139  C165  1.056 1_554  S
N53   C170  1.399 .      S
N53   H144  1.021 .      S
N53   H145  1.019 .      S
C171  H146  1.076 .      S
C172  H147  1.068 .      S
C173  C176  1.414 .      S
C174  H148  1.077 .      S
C175  H149  1.061 .      S
C178  H150  1.074 .      S
C179  N55   1.410 .      S
N55   H151  1.029 .      S
N55   H152  1.029 .      S
C180  H153  1.081 .      S
C181  H154  1.051 1_554  S
H154  C181  1.051 1_556  S
N57   C183  1.411 .      S
N57   H155  1.029 .      S
N57   H156  1.029 .      S
C184  H157  1.078 .      S
C185  H158  1.074 .      S
C186  C189  1.471 .      S
C187  H159  1.064 .      S
C188  H160  1.074 .      S
C191  H161  1.075 .      S
C192  N59   1.396 .      S
N59   H162  1.027 .      S
N59   H163  1.026 .      S
C193  H164  1.072 .      S
C194  H165  1.073 .      S
N60   Zn16  2.305 1_455  S
N61   C196  1.402 .      S
N61   H166  1.028 .      S
N61   H167  1.028 .      S
C197  H168  1.075 .      S
C198  H169  1.058 .      S
C199  C202  1.443 .      S
C200  H170  1.073 .      S
C201  H171  1.072 .      S
C204  H172  1.080 .      S
C205  N63   1.396 .      S
N63   H173  1.023 .      S
N63   H174  1.024 .      S
C206  H175  1.070 .      S
C207  H176  1.069 .      S
N65   C209  1.406 .      S
N65   H177  1.027 .      S
N65   H178  1.029 .      S
C210  H179  1.074 .      S
C211  H180  1.080 .      S
C212  C215  1.454 .      S
C213  H181  1.075 .      S
C214  H182  1.081 .      S
C217  H183  1.061 .      S
C218  N67   1.415 .      S
N67   H184  1.020 .      S
N67   H185  1.021 .      S
C219  H186  1.048 .      S
C220  H187  1.069 .      S
N69   C222  1.402 .      S
N69   H188  1.022 .      S
N69   H189  1.029 .      S
C223  H190  1.076 .      S
C224  H191  1.068 .      S
C225  C228  1.462 .      S
C226  H192  1.071 .      S
C227  H193  1.078 .      S
C230  H194  1.074 .      S
C231  N71   1.409 .      S
N71   H195  1.029 .      S
N71   H196  1.028 .      S
C232  H197  1.078 .      S
C233  H198  1.072 .      S
N72   Zn13  2.226 1_455  S
N73   C235  1.392 .      S
N73   H199  1.022 .      S
N73   H200  1.026 .      S
C236  H201  1.067 .      S
C237  H202  1.071 .      S
C238  C241  1.402 .      S
C239  H203  1.073 .      S
C240  H204  1.052 .      S
C243  H205  1.053 .      S
C244  N75   1.409 1_565  S
N75   C244  1.409 1_545  S
N75   H206  1.029 .      S
N75   H207  1.025 .      S
C245  H208  1.081 .      S
C246  H209  1.073 .      S
N77   C248  1.407 .      S
N77   H210  1.026 .      S
N77   H211  1.028 .      S
C249  H212  1.073 .      S
C250  H213  1.073 .      S
C251  C254  1.465 .      S
C252  H214  1.079 .      S
C253  H215  1.081 .      S
C256  H216  1.063 1_545  S
C257  N79   1.407 .      S
N79   H217  1.028 .      S
N79   H218  1.027 .      S
C258  H219  1.077 .      S
C259  H220  1.054 .      S
H216  C256  1.063 1_565  S
N81   C261  1.400 .      S
N81   H221  1.027 .      S
N81   H222  1.023 .      S
C262  H223  1.061 .      S
C263  H224  1.068 .      S
C264  C267  1.455 .      S
C265  H225  1.063 .      S
C266  H226  1.078 .      S
C269  H227  1.078 .      S
C270  N83   1.403 .      S
N83   H228  1.029 .      S
N83   H229  1.023 .      S
C271  H230  1.071 .      S
C272  H231  1.078 .      S
N85   C274  1.385 .      S
N85   H232  1.025 .      S
N85   H233  1.013 .      S
C275  H234  1.076 .      S
C276  H235  1.029 .      S
C277  C280  1.431 .      S
C278  H236  1.067 .      S
C279  H237  1.061 .      S
C282  H238  1.072 .      S
C283  N87   1.410 .      S
N87   H239  1.029 .      S
N87   H240  1.029 .      S
C284  H241  1.080 .      S
C285  H242  1.067 .      S
N89   C287  1.411 .      S
N89   H243  1.022 .      S
N89   H244  1.028 .      S
C288  H245  1.081 .      S
C289  H246  1.055 .      S
C290  C293  1.458 .      S
C291  H247  1.061 .      S
C292  H248  1.072 .      S
C295  H249  1.063 .      S
C296  N91   1.409 .      S
N91   H250  1.028 .      S
N91   H251  1.029 .      S
C297  H252  1.054 .      S
C298  H253  1.067 .      S
N93   C300  1.397 .      S
N93   H254  1.027 .      S
N93   H255  1.021 .      S
C301  H256  1.075 .      S
C302  H257  1.077 .      S
C303  C306  1.402 .      S
C304  H258  1.072 .      S
C305  H259  1.065 .      S
C308  H260  1.064 .      S
C309  N95   1.406 .      S
N95   H261  1.029 .      S
N95   H262  1.028 .      S
C310  H263  1.076 .      S
C311  H264  1.065 1_554  S
H264  C311  1.065 1_556  S
N97   C313  1.403 .      S
N97   H265  1.029 .      S
N97   H266  1.021 .      S
C314  H267  1.077 .      S
C315  H268  1.050 .      S
C316  C319  1.459 .      S
C317  H269  1.076 .      S
C318  H270  1.074 .      S
C321  H271  1.066 .      S
C322  N99   1.410 .      S
N99   H272  1.029 .      S
N99   H273  1.028 .      S
C323  H274  1.081 .      S
C324  H275  1.074 .      S
N101  C326  1.390 1_565  S
N101  H276  1.024 1_565  S
N101  H277  1.025 .      S
C326  N101  1.390 1_545  S
C327  H278  1.056 .      S
C328  H279  1.079 1_455  S
C329  C332  1.419 1_445  S
C330  H280  1.071 .      S
C331  H281  1.072 .      S
C332  C329  1.419 1_665  S
C334  H282  1.050 .      S
C335  N103  1.407 .      S
N103  H283  1.029 .      S
N103  H284  1.023 .      S
C336  H285  1.081 .      S
C337  H286  1.059 .      S
H276  N101  1.024 1_545  S
H279  C328  1.079 1_655  S
N105  C339  1.399 .      S
N105  H287  1.025 .      S
N105  H288  1.018 .      S
C340  H289  1.053 .      S
C341  H290  1.074 .      S
C342  C345  1.434 .      S
C343  H291  1.066 .      S
C344  H292  1.067 .      S
C347  H293  1.056 .      S
C348  N107  1.406 .      S
N107  H294  1.029 1_665  S
N107  H295  1.027 .      S
C349  H296  1.081 .      S
C350  H297  1.054 .      S
H294  N107  1.029 1_445  S
N109  C352  1.406 .      S
N109  H298  1.027 .      S
N109  H299  1.028 .      S
C353  H300  1.079 .      S
C354  H301  1.068 .      S
C355  C358  1.458 .      S
C356  H302  1.066 .      S
C357  H303  1.081 .      S
C360  H304  1.052 .      S
C361  N111  1.401 .      S
N111  H305  1.020 .      S
N111  H306  1.029 .      S
C362  H307  1.070 .      S
C363  H308  1.043 .      S
N113  C365  1.389 .      S
N113  H309  1.025 .      S
N113  H310  1.026 .      S
C366  H311  1.074 .      S
C367  H312  1.067 .      S
C368  C371  1.428 .      S
C369  H313  1.072 .      S
C370  H314  1.070 .      S
C373  H315  1.066 .      S
C374  N115  1.406 .      S
N115  H316  1.027 .      S
N115  H317  1.028 .      S
C375  H318  1.081 .      S
C376  H319  1.063 .      S
N117  C378  1.395 .      S
N117  H320  1.027 .      S
N117  H321  1.021 .      S
C379  H322  1.059 .      S
C380  H323  1.052 .      S
C381  C384  1.440 .      S
C382  H324  1.077 .      S
C383  H325  1.061 .      S
C386  H326  1.070 .      S
C387  N119  1.407 .      S
N119  H327  1.029 .      S
N119  H328  1.028 .      S
C388  H329  1.081 .      S
C389  H330  1.079 .      S
N121  C391  1.391 .      S
N121  H331  1.027 .      S
N121  H332  1.020 .      S
C392  H333  1.076 .      S
C393  H334  1.070 .      S
C394  C397  1.437 .      S
C395  H335  1.072 .      S
C396  H336  1.077 .      S
C399  H337  1.068 .      S
C400  N123  1.393 .      S
N123  H338  1.028 .      S
N123  H339  1.015 .      S
C401  H340  1.064 .      S
C402  H341  1.055 .      S
N125  C404  1.400 .      S
N125  H342  1.027 .      S
N125  H343  1.021 .      S
C405  H344  1.069 .      S
C406  H345  1.072 .      S
C407  C410  1.442 .      S
C408  H346  1.060 .      S
C409  H347  1.071 .      S
N126  Zn20  2.200 1_556  S
C412  H348  1.075 1_556  S
C413  N127  1.402 1_556  S
N127  C413  1.402 1_554  S
N127  H349  1.017 .      S
N127  H350  1.029 .      S
C414  H351  1.070 .      S
C415  H352  1.041 .      S
H348  C412  1.075 1_554  S
N129  C417  1.390 .      S
N129  H353  1.021 .      S
N129  H354  1.025 .      S
C418  H355  1.065 .      S
C419  H356  1.076 .      S
C420  C423  1.405 .      S
C421  H357  1.080 .      S
C422  H358  1.068 .      S
C425  H359  1.074 .      S
C426  N131  1.410 .      S
N131  H360  1.029 .      S
N131  H361  1.029 .      S
C427  H362  1.081 .      S
C428  H363  1.081 1_655  S
H363  C428  1.081 1_455  S
N133  C430  1.407 .      S
N133  H364  1.022 .      S
N133  H365  1.028 .      S
C431  H366  1.066 .      S
C432  H367  1.077 .      S
C433  C436  1.435 .      S
C434  H368  1.071 .      S
C435  H369  1.076 .      S
C438  H370  1.061 .      S
C439  N135  1.408 .      S
N135  H371  1.029 .      S
N135  H372  1.028 .      S
C440  H373  1.061 .      S
C441  H374  1.063 .      S
N137  C443  1.410 1_545  S
N137  H375  1.029 .      S
N137  H376  1.029 .      S
C443  N137  1.410 1_565  S
C444  H377  1.081 .      S
C445  H378  1.078 .      S
C446  C449  1.477 .      S
C447  H379  1.068 .      S
C448  H380  1.074 .      S
C451  H381  1.059 .      S
C452  N139  1.410 .      S
N139  H382  1.026 1_565  S
N139  H383  1.028 .      S
C453  H384  1.078 .      S
C454  H385  1.072 .      S
H382  N139  1.026 1_545  S
N141  C456  1.404 1_556  S
N141  H386  1.024 .      S
N141  H387  1.028 .      S
C456  N141  1.404 1_554  S
C457  H388  1.071 .      S
C458  H389  1.074 .      S
C459  C462  1.458 1_565  S
C460  H390  1.064 .      S
C461  H391  1.078 1_554  S
C462  C459  1.458 1_545  S
C464  H392  1.066 .      S
C465  N143  1.410 .      S
N143  H393  1.029 .      S
N143  H394  1.028 .      S
C466  H395  1.081 .      S
C467  H396  1.071 1_545  S
H391  C461  1.078 1_556  S
H396  C467  1.071 1_565  S
N145  C469  1.400 .      S
N145  H397  1.026 .      S
N145  H398  1.029 .      S
C470  H399  1.062 .      S
C471  H400  1.073 .      S
C472  C475  1.442 .      S
C473  H401  1.077 .      S
C474  H402  1.064 .      S
C477  H403  1.066 .      S
C478  N147  1.405 .      S
N147  H404  1.025 .      S
N147  H405  1.029 .      S
C479  H406  1.081 .      S
C480  H407  1.049 .      S
N149  C482  1.383 .      S
N149  H408  1.015 .      S
N149  H409  1.028 .      S
C483  H410  1.071 .      S
C484  H411  1.067 .      S
C485  C488  1.419 .      S
C486  H412  1.063 .      S
C487  H413  1.063 .      S
C490  H414  1.054 .      S
C491  N151  1.392 .      S
N151  H415  1.020 .      S
N151  H416  1.026 .      S
C492  H417  1.071 .      S
C493  H418  1.074 .      S
N153  C495  1.401 .      S
N153  H419  1.028 .      S
N153  H420  1.026 .      S
C496  H421  1.069 .      S
C497  H422  1.052 .      S
C498  C501  1.455 .      S
C499  H423  1.067 .      S
C500  H424  1.075 .      S
C503  H425  1.075 .      S
C504  N155  1.409 .      S
N155  H426  1.029 .      S
N155  H427  1.027 .      S
C505  H428  1.081 .      S
C506  H429  1.079 .      S
N157  C508  1.410 .      S
N157  H430  1.029 .      S
N157  H431  1.029 .      S
C509  H432  1.079 .      S
C510  H433  1.074 .      S
C511  C514  1.470 .      S
C512  H434  1.077 .      S
C513  H435  1.077 .      S
C516  H436  1.046 .      S
C517  N159  1.400 .      S
N159  H437  1.023 .      S
N159  H438  1.029 .      S
C518  H439  1.077 .      S
C519  H440  1.033 .      S
N161  C521  1.410 .      S
N161  H441  1.029 .      S
N161  H442  1.029 .      S
C522  H443  1.077 .      S
C523  H444  1.064 .      S
C524  C527  1.481 .      S
C525  H445  1.076 .      S
C526  H446  1.081 .      S
C529  H447  1.051 .      S
C530  N163  1.406 .      S
N163  H448  1.027 .      S
N163  H449  1.027 .      S
C531  H450  1.043 .      S
C532  H451  1.070 .      S
N164  Zn5   2.247 1_455  S
N165  C534  1.410 .      S
N165  H452  1.029 .      S
N165  H453  1.029 .      S
C535  H454  1.078 .      S
C536  H455  1.080 .      S
C537  C540  1.475 .      S
C538  H456  1.062 .      S
C539  H457  1.081 .      S
C542  H458  1.059 .      S
C543  N167  1.403 1_544  S
N167  C543  1.403 1_566  S
N167  H459  1.015 .      S
N167  H460  1.027 1_565  S
C544  H461  1.063 .      S
C545  H462  1.074 1_545  S
N168  Zn4   2.332 1_455  S
H460  N167  1.027 1_545  S
H462  C545  1.074 1_565  S
N169  C547  1.411 1_545  S
N169  H463  1.029 .      S
N169  H464  1.029 .      S
C547  N169  1.411 1_565  S
C548  H465  1.079 .      S
C549  H466  1.079 .      S
C550  C553  1.455 .      S
C551  H467  1.067 .      S
C552  H468  1.080 .      S
C555  H469  1.055 .      S
C556  N171  1.405 .      S
N171  H470  1.022 .      S
N171  H471  1.022 .      S
C557  H472  1.062 .      S
C558  H473  1.058 .      S
N173  C560  1.411 .      S
N173  H474  1.028 .      S
N173  H475  1.029 .      S
C561  H476  1.081 .      S
C562  H477  1.076 .      S
C563  C566  1.471 1_554  S
C564  H478  1.077 .      S
C565  H479  1.079 .      S
C566  C563  1.471 1_556  S
C568  H480  1.049 .      S
C569  N175  1.404 .      S
N175  H481  1.020 .      S
N175  H482  1.026 .      S
C570  H483  1.038 .      S
C571  H484  1.064 .      S
N177  C573  1.388 .      S
N177  H485  1.028 .      S
N177  H486  1.013 .      S
C574  H487  1.053 .      S
C575  H488  1.063 .      S
C576  C579  1.430 .      S
C577  H489  1.051 .      S
C578  H490  1.071 .      S
C581  H491  1.080 .      S
C582  N179  1.384 .      S
N179  H492  1.010 .      S
N179  H493  1.026 .      S
C583  H494  1.079 .      S
C584  H495  1.067 .      S
N181  C586  1.395 .      S
N181  H496  1.027 .      S
N181  H497  1.023 1_455  S
C587  H498  1.066 1_556  S
C588  H499  1.058 .      S
C589  C592  1.436 .      S
C590  H500  1.065 1_565  S
C591  H501  1.081 .      S
N182  Zn4   2.293 1_556  S
C594  H502  1.074 1_556  S
C595  N183  1.405 1_556  S
N183  C595  1.405 1_554  S
N183  H503  1.026 .      S
N183  H504  1.029 .      S
C596  H505  1.051 .      S
C597  H506  1.068 .      S
H497  N181  1.023 1_655  S
H498  C587  1.066 1_554  S
H500  C590  1.065 1_545  S
H502  C594  1.074 1_554  S
N185  C599  1.389 .      S
N185  H507  1.018 .      S
N185  H508  1.027 .      S
C600  H509  1.071 .      S
C601  H510  1.054 .      S
C602  C605  1.406 .      S
C603  H511  1.078 .      S
C604  H512  1.068 .      S
C607  H513  1.072 .      S
C608  N187  1.409 .      S
N187  H514  1.029 .      S
N187  H515  1.029 .      S
C609  H516  1.081 .      S
C610  H517  1.067 .      S
N189  C612  1.392 .      S
N189  H518  1.025 .      S
N189  H519  1.018 .      S
C613  H520  1.071 .      S
C614  H521  1.074 .      S
C615  C618  1.417 .      S
C616  H522  1.081 .      S
C617  H523  1.050 .      S
C620  H524  1.082 .      S
C621  N191  1.410 .      S
N191  H525  1.029 .      S
N191  H526  1.029 .      S
C622  H527  1.079 .      S
C623  H528  1.075 .      S
N192  Zn1   2.296 1_455  S
C1    C2    1.378 .      A
C1    C6    1.377 .      A
C2    C3    1.371 .      A
C3    C4    1.380 .      A
C4    C5    1.379 .      A
C5    C6    1.371 .      A
C7    N2    1.423 .      A
C7    N4    1.410 .      A
N2    C8    1.320 .      A
C8    C9    1.345 .      A
C8    C13   1.366 .      A
C9    C10   1.351 1_655  A
C10   C9    1.351 1_455  A
C10   C11   1.387 .      A
C11   C12   1.357 .      A
C12   C13   1.327 1_455  A
C13   C12   1.327 1_655  A
C13   N4    1.327 .      A
C14   C15   1.369 .      A
C14   C19   1.373 .      A
C15   C16   1.375 .      A
C16   C17   1.364 .      A
C17   C18   1.375 .      A
C18   C19   1.377 .      A
C20   N6    1.422 .      A
C20   N8    1.409 .      A
N6    C21   1.349 .      A
C21   C22   1.358 .      A
C21   C26   1.372 .      A
C22   C23   1.384 .      A
C23   C24   1.375 .      A
C24   C25   1.371 .      A
C25   C26   1.362 .      A
C26   N8    1.335 .      A
C27   C28   1.368 .      A
C27   C32   1.365 .      A
C28   C29   1.375 .      A
C29   C30   1.366 1_455  A
C30   C29   1.366 1_655  A
C30   C31   1.383 .      A
C31   C32   1.364 1_655  A
C32   C31   1.364 1_455  A
C33   N10   1.406 .      A
C33   N12   1.411 .      A
N10   C34   1.350 .      A
C34   C35   1.369 .      A
C34   C39   1.370 .      A
C35   C36   1.392 .      A
C36   C37   1.370 .      A
C37   C38   1.360 .      A
C38   C39   1.345 .      A
C39   N12   1.347 .      A
C40   C41   1.363 .      A
C40   C45   1.373 .      A
C41   C42   1.362 .      A
C42   C43   1.355 .      A
C43   C44   1.356 .      A
C44   C45   1.379 .      A
C46   N14   1.412 .      A
C46   N16   1.403 1_565  A
N14   C47   1.354 .      A
C47   C48   1.374 .      A
C47   C52   1.379 1_565  A
C48   C49   1.386 1_565  A
C49   C48   1.386 1_545  A
C49   C50   1.387 .      A
C50   C51   1.382 .      A
C51   C52   1.362 .      A
C52   C47   1.379 1_545  A
C52   N16   1.344 .      A
N16   C46   1.403 1_545  A
C53   C54   1.367 .      A
C53   C58   1.378 .      A
C54   C55   1.371 .      A
C55   C56   1.380 .      A
C56   C57   1.384 .      A
C57   C58   1.384 .      A
C59   N18   1.409 .      A
C59   N20   1.419 .      A
N18   C60   1.322 1_554  A
C60   N18   1.322 1_556  A
C60   C61   1.363 .      A
C60   C65   1.360 1_556  A
C61   C62   1.357 .      A
C62   C63   1.371 .      A
C63   C64   1.383 .      A
C64   C65   1.362 1_556  A
C65   C60   1.360 1_554  A
C65   C64   1.362 1_554  A
C65   N20   1.365 .      A
C66   C67   1.376 .      A
C66   C71   1.372 .      A
C67   C68   1.376 .      A
C68   C69   1.375 1_554  A
C69   C68   1.375 1_556  A
C69   C70   1.365 1_556  A
C70   C69   1.365 1_554  A
C70   C71   1.369 .      A
C72   N22   1.406 .      A
C72   N24   1.402 .      A
N22   C73   1.346 .      A
C73   C74   1.355 .      A
C73   C78   1.351 .      A
C74   C75   1.368 .      A
C75   C76   1.364 .      A
C76   C77   1.367 .      A
C77   C78   1.368 .      A
C78   N24   1.352 .      A
C79   C80   1.376 .      A
C79   C84   1.376 .      A
C80   C81   1.379 .      A
C81   C82   1.383 .      A
C82   C83   1.376 .      A
C83   C84   1.381 .      A
C85   N26   1.404 .      A
C85   N28   1.407 .      A
N26   C86   1.316 .      A
C86   C87   1.361 .      A
C86   C91   1.349 .      A
C87   C88   1.356 .      A
C88   C89   1.353 .      A
C89   C90   1.363 .      A
C90   C91   1.361 .      A
C91   N28   1.370 .      A
C92   C93   1.346 .      A
C92   C97   1.377 .      A
C93   C94   1.362 .      A
C94   C95   1.374 .      A
C95   C96   1.346 .      A
C96   C97   1.371 .      A
C98   N30   1.394 .      A
C98   N32   1.434 .      A
N30   C99   1.338 .      A
C99   C100  1.361 .      A
C99   C104  1.377 .      A
C100  C101  1.380 .      A
C101  C102  1.379 1_556  A
C102  C101  1.379 1_554  A
C102  C103  1.362 .      A
C103  C104  1.357 1_554  A
C104  C103  1.357 1_556  A
C104  N32   1.344 .      A
C105  C106  1.344 .      A
C105  C110  1.378 .      A
C106  C107  1.357 .      A
C107  C108  1.365 .      A
C108  C109  1.357 .      A
C109  C110  1.372 .      A
C111  N34   1.398 .      A
C111  N36   1.423 .      A
N34   C112  1.341 .      A
C112  C113  1.364 1_655  A
C112  C117  1.366 .      A
C113  C112  1.364 1_455  A
C113  C114  1.372 .      A
C114  C115  1.367 1_556  A
C115  C114  1.367 1_554  A
C115  C116  1.359 1_455  A
C116  C115  1.359 1_655  A
C116  C117  1.352 1_554  A
C117  C116  1.352 1_556  A
C117  N36   1.342 .      A
C118  C119  1.352 .      A
C118  C123  1.354 .      A
C119  C120  1.352 .      A
C120  C121  1.354 .      A
C121  C122  1.354 .      A
C122  C123  1.364 .      A
C124  N38   1.403 .      A
C124  N40   1.403 .      A
N38   C125  1.356 .      A
C125  C126  1.369 .      A
C125  C130  1.368 .      A
C126  C127  1.384 .      A
C127  C128  1.378 .      A
C128  C129  1.374 .      A
C129  C130  1.368 .      A
C130  N40   1.348 .      A
C131  C132  1.370 .      A
C131  C136  1.369 .      A
C132  C133  1.380 .      A
C133  C134  1.377 .      A
C134  C135  1.374 .      A
C135  C136  1.382 .      A
C137  N42   1.401 .      A
C137  N44   1.401 1_556  A
N42   C138  1.350 .      A
C138  C139  1.373 .      A
C138  C143  1.345 1_556  A
C139  C140  1.381 1_556  A
C140  C139  1.381 1_554  A
C140  C141  1.378 .      A
C141  C142  1.375 .      A
C142  C143  1.340 .      A
C143  C138  1.345 1_554  A
C143  N44   1.342 .      A
N44   C137  1.401 1_554  A
C144  C145  1.360 .      A
C144  C149  1.368 .      A
C145  C146  1.346 .      A
C146  C147  1.341 .      A
C147  C148  1.368 .      A
C148  C149  1.359 .      A
C150  N46   1.403 .      A
C150  N48   1.393 .      A
N46   C151  1.332 .      A
C151  C152  1.349 .      A
C151  C156  1.370 .      A
C152  C153  1.362 .      A
C153  C154  1.375 .      A
C154  C155  1.377 .      A
C155  C156  1.351 .      A
C156  N48   1.342 .      A
C157  C158  1.379 .      A
C157  C162  1.364 .      A
C158  C159  1.381 .      A
C159  C160  1.377 .      A
C160  C161  1.368 .      A
C161  C162  1.364 .      A
C163  N50   1.402 .      A
C163  N52   1.410 .      A
N50   C164  1.344 .      A
C164  C165  1.363 .      A
C164  C169  1.362 .      A
C165  C166  1.380 1_556  A
C166  C165  1.380 1_554  A
C166  C167  1.384 .      A
C167  C168  1.382 1_554  A
C168  C167  1.382 1_556  A
C168  C169  1.368 .      A
C169  N52   1.352 .      A
C170  C171  1.363 .      A
C170  C175  1.388 .      A
C171  C172  1.355 .      A
C172  C173  1.367 .      A
C173  C174  1.354 .      A
C174  C175  1.370 .      A
C176  N54   1.393 .      A
C176  N56   1.403 .      A
N54   C177  1.361 .      A
C177  C178  1.389 1_556  A
C177  C182  1.364 .      A
C178  C177  1.389 1_554  A
C178  C179  1.381 .      A
C179  C180  1.379 .      A
C180  C181  1.378 .      A
C181  C182  1.358 1_554  A
C182  C181  1.358 1_556  A
C182  N56   1.351 .      A
C183  C184  1.371 .      A
C183  C188  1.373 .      A
C184  C185  1.380 .      A
C185  C186  1.383 .      A
C186  C187  1.360 .      A
C187  C188  1.380 .      A
C189  N58   1.406 .      A
C189  N60   1.425 .      A
N58   C190  1.331 .      A
C190  C191  1.360 .      A
C190  C195  1.360 .      A
C191  C192  1.377 .      A
C192  C193  1.379 .      A
C193  C194  1.368 .      A
C194  C195  1.348 .      A
C195  N60   1.342 .      A
C196  C197  1.377 .      A
C196  C201  1.368 .      A
C197  C198  1.377 .      A
C198  C199  1.365 .      A
C199  C200  1.355 .      A
C200  C201  1.372 .      A
C202  N62   1.402 .      A
C202  N64   1.408 .      A
N62   C203  1.331 .      A
C203  C204  1.352 .      A
C203  C208  1.366 .      A
C204  C205  1.373 .      A
C205  C206  1.385 .      A
C206  C207  1.370 .      A
C207  C208  1.360 .      A
C208  N64   1.347 .      A
C209  C210  1.373 .      A
C209  C214  1.374 .      A
C210  C211  1.375 .      A
C211  C212  1.368 .      A
C212  C213  1.381 .      A
C213  C214  1.375 .      A
C215  N66   1.404 .      A
C215  N68   1.405 .      A
N66   C216  1.308 .      A
C216  C217  1.337 .      A
C216  C221  1.349 .      A
C217  C218  1.331 .      A
C218  C219  1.398 .      A
C219  C220  1.380 .      A
C220  C221  1.353 .      A
C221  N68   1.348 .      A
C222  C223  1.375 .      A
C222  C227  1.361 .      A
C223  C224  1.381 .      A
C224  C225  1.369 .      A
C225  C226  1.370 .      A
C226  C227  1.374 .      A
C228  N70   1.405 .      A
C228  N72   1.402 .      A
N70   C229  1.344 .      A
C229  C230  1.361 .      A
C229  C234  1.367 .      A
C230  C231  1.386 1_565  A
C231  C230  1.386 1_545  A
C231  C232  1.383 .      A
C232  C233  1.379 1_545  A
C233  C232  1.379 1_565  A
C233  C234  1.378 .      A
C234  N72   1.353 .      A
C235  C236  1.354 .      A
C235  C240  1.377 .      A
C236  C237  1.355 .      A
C237  C238  1.355 .      A
C238  C239  1.352 .      A
C239  C240  1.362 .      A
C241  N74   1.398 .      A
C241  N76   1.374 .      A
N74   C242  1.379 .      A
C242  C243  1.385 .      A
C242  C247  1.377 .      A
C243  C244  1.391 .      A
C244  C245  1.380 .      A
C245  C246  1.370 .      A
C246  C247  1.374 .      A
C247  N76   1.339 .      A
C248  C249  1.376 .      A
C248  C253  1.372 .      A
C249  C250  1.382 .      A
C250  C251  1.368 .      A
C251  C252  1.393 .      A
C252  C253  1.375 .      A
C254  N78   1.416 1_545  A
C254  N80   1.428 .      A
N78   C254  1.416 1_565  A
N78   C255  1.339 .      A
C255  C256  1.372 1_565  A
C255  C260  1.380 1_565  A
C256  C255  1.372 1_545  A
C256  C257  1.381 .      A
C257  C258  1.379 .      A
C258  C259  1.376 .      A
C259  C260  1.363 .      A
C260  C255  1.380 1_545  A
C260  N80   1.356 .      A
C261  C262  1.373 .      A
C261  C266  1.356 .      A
C262  C263  1.376 .      A
C263  C264  1.359 .      A
C264  C265  1.374 .      A
C265  C266  1.371 .      A
C267  N82   1.424 .      A
C267  N84   1.406 .      A
N82   C268  1.344 .      A
C268  C269  1.366 .      A
C268  C273  1.370 .      A
C269  C270  1.374 1_655  A
C270  C269  1.374 1_455  A
C270  C271  1.377 .      A
C271  C272  1.383 .      A
C272  C273  1.358 1_455  A
C273  C272  1.358 1_655  A
C273  N84   1.341 .      A
C274  C275  1.346 1_455  A
C274  C279  1.375 1_455  A
C275  C274  1.346 1_655  A
C275  C276  1.342 .      A
C276  C277  1.348 .      A
C277  C278  1.351 .      A
C278  C279  1.359 .      A
C279  C274  1.375 1_655  A
C280  N86   1.407 .      A
C280  N88   1.420 .      A
N86   C281  1.362 .      A
C281  C282  1.381 1_556  A
C281  C286  1.384 .      A
C282  C281  1.381 1_554  A
C282  C283  1.381 .      A
C283  C284  1.383 .      A
C284  C285  1.382 .      A
C285  C286  1.376 1_554  A
C286  C285  1.376 1_556  A
C286  N88   1.358 .      A
C287  C288  1.381 .      A
C287  C292  1.357 .      A
C288  C289  1.368 .      A
C289  C290  1.350 .      A
C290  C291  1.375 .      A
C291  C292  1.370 .      A
C293  N90   1.440 .      A
C293  N92   1.408 .      A
N90   C294  1.335 .      A
C294  C295  1.358 .      A
C294  C299  1.368 .      A
C295  C296  1.362 .      A
C296  C297  1.375 .      A
C297  C298  1.374 .      A
C298  C299  1.343 .      A
C299  N92   1.340 .      A
C300  C301  1.373 .      A
C300  C305  1.364 .      A
C301  C302  1.360 .      A
C302  C303  1.363 .      A
C303  C304  1.347 .      A
C304  C305  1.354 .      A
C306  N94   1.390 1_556  A
C306  N96   1.378 .      A
N94   C306  1.390 1_554  A
N94   C307  1.355 .      A
C307  C308  1.371 .      A
C307  C312  1.374 1_554  A
C308  C309  1.387 .      A
C309  C310  1.377 .      A
C310  C311  1.371 .      A
C311  C312  1.368 1_554  A
C312  C307  1.374 1_556  A
C312  C311  1.368 1_556  A
C312  N96   1.351 .      A
C313  C314  1.362 .      A
C313  C318  1.379 .      A
C314  C315  1.366 .      A
C315  C316  1.350 .      A
C316  C317  1.382 .      A
C317  C318  1.378 .      A
C319  N98   1.438 .      A
C319  N100  1.406 .      A
N98   C320  1.346 .      A
C320  C321  1.367 .      A
C320  C325  1.379 .      A
C321  C322  1.384 1_556  A
C322  C321  1.384 1_554  A
C322  C323  1.385 .      A
C323  C324  1.378 .      A
C324  C325  1.369 1_554  A
C325  C324  1.369 1_556  A
C325  N100  1.355 .      A
C326  C327  1.370 .      A
C326  C331  1.358 1_545  A
C327  C328  1.360 .      A
C328  C329  1.365 .      A
C329  C330  1.363 1_545  A
C330  C329  1.363 1_565  A
C330  C331  1.354 .      A
C331  C326  1.358 1_565  A
C332  N102  1.410 1_565  A
C332  N104  1.397 .      A
N102  C332  1.410 1_545  A
N102  C333  1.362 .      A
C333  C334  1.370 .      A
C333  C338  1.378 1_545  A
C334  C335  1.389 .      A
C335  C336  1.377 .      A
C336  C337  1.371 1_545  A
C337  C336  1.371 1_565  A
C337  C338  1.364 .      A
C338  C333  1.378 1_565  A
C338  N104  1.344 .      A
C339  C340  1.355 .      A
C339  C344  1.376 .      A
C340  C341  1.359 .      A
C341  C342  1.368 .      A
C342  C343  1.359 .      A
C343  C344  1.366 .      A
C345  N106  1.389 .      A
C345  N108  1.409 .      A
N106  C346  1.359 .      A
C346  C347  1.371 .      A
C346  C351  1.367 .      A
C347  C348  1.393 .      A
C348  C349  1.379 1_655  A
C349  C348  1.379 1_455  A
C349  C350  1.368 .      A
C350  C351  1.357 1_455  A
C351  C350  1.357 1_655  A
C351  N108  1.341 .      A
C352  C353  1.373 .      A
C352  C357  1.374 .      A
C353  C354  1.378 .      A
C354  C355  1.370 .      A
C355  C356  1.374 .      A
C356  C357  1.374 .      A
C358  N110  1.424 .      A
C358  N112  1.424 .      A
N110  C359  1.361 .      A
C359  C360  1.368 .      A
C359  C364  1.373 .      A
C360  C361  1.388 .      A
C361  C362  1.370 .      A
C362  C363  1.354 .      A
C363  C364  1.349 .      A
C364  N112  1.331 .      A
C365  C366  1.364 .      A
C365  C370  1.374 .      A
C366  C367  1.355 .      A
C367  C368  1.368 .      A
C368  C369  1.357 .      A
C369  C370  1.360 .      A
C371  N114  1.406 .      A
C371  N116  1.420 .      A
N114  C372  1.354 .      A
C372  C373  1.370 .      A
C372  C377  1.383 .      A
C373  C374  1.382 .      A
C374  C375  1.383 .      A
C375  C376  1.380 .      A
C376  C377  1.369 .      A
C377  N116  1.351 .      A
C378  C379  1.334 .      A
C378  C383  1.377 .      A
C379  C380  1.350 1_565  A
C380  C379  1.350 1_545  A
C380  C381  1.361 .      A
C381  C382  1.368 .      A
C382  C383  1.361 1_545  A
C383  C382  1.361 1_565  A
C384  N118  1.399 .      A
C384  N120  1.414 .      A
N118  C385  1.355 .      A
C385  C386  1.376 .      A
C385  C390  1.381 .      A
C386  C387  1.385 .      A
C387  C388  1.386 .      A
C388  C389  1.380 .      A
C389  C390  1.379 .      A
C390  N120  1.352 .      A
C391  C392  1.357 .      A
C391  C396  1.378 .      A
C392  C393  1.364 .      A
C393  C394  1.366 .      A
C394  C395  1.375 .      A
C395  C396  1.371 .      A
C397  N122  1.399 .      A
C397  N124  1.405 .      A
N122  C398  1.314 .      A
C398  C399  1.341 .      A
C398  C403  1.366 .      A
C399  C400  1.345 .      A
C400  C401  1.375 .      A
C401  C402  1.380 .      A
C402  C403  1.375 .      A
C403  N124  1.364 .      A
C404  C405  1.364 .      A
C404  C409  1.366 .      A
C405  C406  1.367 .      A
C406  C407  1.365 .      A
C407  C408  1.363 .      A
C408  C409  1.360 .      A
C410  N126  1.397 .      A
C410  N128  1.422 .      A
N126  C411  1.319 .      A
C411  C412  1.354 .      A
C411  C416  1.362 .      A
C412  C413  1.362 .      A
C413  C414  1.390 .      A
C414  C415  1.372 .      A
C415  C416  1.331 .      A
C416  N128  1.344 .      A
C417  C418  1.345 .      A
C417  C422  1.382 .      A
C418  C419  1.341 .      A
C419  C420  1.350 .      A
C420  C421  1.364 .      A
C421  C422  1.368 .      A
C423  N130  1.387 .      A
C423  N132  1.392 .      A
N130  C424  1.350 .      A
C424  C425  1.371 .      A
C424  C429  1.381 .      A
C425  C426  1.385 .      A
C426  C427  1.388 .      A
C427  C428  1.385 .      A
C428  C429  1.379 .      A
C429  N132  1.363 .      A
C430  C431  1.380 .      A
C430  C435  1.367 .      A
C431  C432  1.369 .      A
C432  C433  1.360 1_455  A
C433  C432  1.360 1_655  A
C433  C434  1.371 .      A
C434  C435  1.364 1_655  A
C435  C434  1.364 1_455  A
C436  N134  1.416 .      A
C436  N136  1.400 .      A
N134  C437  1.330 .      A
C437  C438  1.362 .      A
C437  C442  1.360 .      A
C438  C439  1.362 .      A
C439  C440  1.379 .      A
C440  C441  1.387 .      A
C441  C442  1.337 .      A
C442  N136  1.346 .      A
C443  C444  1.373 .      A
C443  C448  1.376 .      A
C444  C445  1.377 .      A
C445  C446  1.393 .      A
C446  C447  1.367 .      A
C447  C448  1.378 .      A
C449  N138  1.394 .      A
C449  N140  1.402 .      A
N138  C450  1.349 .      A
C450  C451  1.370 .      A
C450  C455  1.373 .      A
C451  C452  1.378 .      A
C452  C453  1.380 .      A
C453  C454  1.370 .      A
C454  C455  1.368 .      A
C455  N140  1.342 .      A
C456  C457  1.378 .      A
C456  C461  1.365 .      A
C457  C458  1.380 .      A
C458  C459  1.374 .      A
C459  C460  1.362 .      A
C460  C461  1.371 .      A
C462  N142  1.417 .      A
C462  N144  1.397 1_545  A
N142  C463  1.349 .      A
C463  C464  1.369 .      A
C463  C468  1.372 .      A
C464  C465  1.385 .      A
C465  C466  1.387 .      A
C466  C467  1.381 .      A
C467  C468  1.375 .      A
C468  N144  1.356 1_545  A
N144  C462  1.397 1_565  A
N144  C468  1.356 1_565  A
C469  C470  1.360 .      A
C469  C474  1.377 .      A
C470  C471  1.361 .      A
C471  C472  1.377 .      A
C472  C473  1.364 .      A
C473  C474  1.371 .      A
C475  N146  1.409 .      A
C475  N148  1.412 .      A
N146  C476  1.355 .      A
C476  C477  1.376 .      A
C476  C481  1.367 .      A
C477  C478  1.377 1_565  A
C478  C477  1.377 1_545  A
C478  C479  1.381 .      A
C479  C480  1.377 .      A
C480  C481  1.365 1_545  A
C481  C480  1.365 1_565  A
C481  N148  1.353 .      A
C482  C483  1.376 .      A
C482  C487  1.344 .      A
C483  C484  1.363 .      A
C484  C485  1.370 .      A
C485  C486  1.342 .      A
C486  C487  1.344 .      A
C488  N150  1.396 .      A
C488  N152  1.406 .      A
N150  C489  1.323 .      A
C489  C490  1.330 .      A
C489  C494  1.364 .      A
C490  C491  1.339 .      A
C491  C492  1.387 .      A
C492  C493  1.383 .      A
C493  C494  1.353 .      A
C494  N152  1.341 .      A
C495  C496  1.369 .      A
C495  C500  1.370 .      A
C496  C497  1.365 .      A
C497  C498  1.357 .      A
C498  C499  1.367 .      A
C499  C500  1.376 .      A
C501  N154  1.420 .      A
C501  N156  1.413 .      A
N154  C502  1.359 .      A
C502  C503  1.371 .      A
C502  C507  1.386 .      A
C503  C504  1.390 .      A
C504  C505  1.389 .      A
C505  C506  1.380 .      A
C506  C507  1.371 .      A
C507  N156  1.345 .      A
C508  C509  1.378 .      A
C508  C513  1.381 .      A
C509  C510  1.381 .      A
C510  C511  1.380 .      A
C511  C512  1.380 .      A
C512  C513  1.383 .      A
C514  N158  1.420 .      A
C514  N160  1.430 .      A
N158  C515  1.335 .      A
C515  C516  1.360 .      A
C515  C520  1.353 .      A
C516  C517  1.360 .      A
C517  C518  1.362 .      A
C518  C519  1.373 .      A
C519  C520  1.332 .      A
C520  N160  1.345 .      A
C521  C522  1.373 .      A
C521  C526  1.372 .      A
C522  C523  1.379 .      A
C523  C524  1.378 .      A
C524  C525  1.379 .      A
C525  C526  1.380 .      A
C527  N162  1.422 .      A
C527  N164  1.409 .      A
N162  C528  1.338 .      A
C528  C529  1.359 .      A
C528  C533  1.365 .      A
C529  C530  1.363 .      A
C530  C531  1.359 .      A
C531  C532  1.361 .      A
C532  C533  1.346 .      A
C533  N164  1.332 .      A
C534  C535  1.376 .      A
C534  C539  1.375 .      A
C535  C536  1.377 .      A
C536  C537  1.381 .      A
C537  C538  1.382 .      A
C538  C539  1.378 .      A
C540  N166  1.411 .      A
C540  N168  1.424 .      A
N166  C541  1.315 .      A
C541  C542  1.348 .      A
C541  C546  1.358 .      A
C542  C543  1.340 .      A
C543  C544  1.372 1_545  A
C544  C543  1.372 1_565  A
C544  C545  1.395 1_565  A
C545  C544  1.395 1_545  A
C545  C546  1.359 .      A
C546  N168  1.357 .      A
C547  C548  1.377 .      A
C547  C552  1.376 .      A
C548  C549  1.383 .      A
C549  C550  1.375 .      A
C550  C551  1.369 .      A
C551  C552  1.377 .      A
C553  N170  1.414 .      A
C553  N172  1.408 .      A
N170  C554  1.338 .      A
C554  C555  1.344 .      A
C554  C559  1.359 .      A
C555  C556  1.365 .      A
C556  C557  1.369 .      A
C557  C558  1.368 .      A
C558  C559  1.363 .      A
C559  N172  1.339 .      A
C560  C561  1.371 .      A
C560  C565  1.379 .      A
C561  C562  1.375 .      A
C562  C563  1.383 .      A
C563  C564  1.373 .      A
C564  C565  1.383 .      A
C566  N174  1.419 1_556  A
C566  N176  1.420 .      A
N174  C566  1.419 1_554  A
N174  C567  1.337 1_554  A
C567  N174  1.337 1_556  A
C567  C568  1.353 1_655  A
C567  C572  1.361 .      A
C568  C567  1.353 1_455  A
C568  C569  1.353 .      A
C569  C570  1.366 .      A
C570  C571  1.354 1_455  A
C571  C570  1.354 1_655  A
C571  C572  1.343 .      A
C572  N176  1.331 .      A
C573  C574  1.355 1_455  A
C573  C578  1.361 .      A
C574  C573  1.355 1_655  A
C574  C575  1.354 .      A
C575  C576  1.341 .      A
C576  C577  1.365 1_655  A
C577  C576  1.365 1_455  A
C577  C578  1.357 .      A
C579  N178  1.421 .      A
C579  N180  1.397 .      A
N178  C580  1.337 .      A
C580  C581  1.350 .      A
C580  C585  1.378 .      A
C581  C582  1.358 .      A
C582  C583  1.386 .      A
C583  C584  1.379 .      A
C584  C585  1.370 .      A
C585  N180  1.348 .      A
C586  C587  1.355 .      A
C586  C591  1.363 1_455  A
C587  C588  1.375 1_565  A
C588  C587  1.375 1_545  A
C588  C589  1.338 1_455  A
C589  C588  1.338 1_655  A
C589  C590  1.362 1_545  A
C590  C589  1.362 1_565  A
C590  C591  1.372 .      A
C591  C586  1.363 1_655  A
C592  N182  1.425 .      A
C592  N184  1.405 .      A
N182  C593  1.331 .      A
C593  C594  1.362 .      A
C593  C598  1.373 .      A
C594  C595  1.357 .      A
C595  C596  1.378 .      A
C596  C597  1.373 .      A
C597  C598  1.359 .      A
C598  N184  1.353 .      A
C599  C600  1.344 .      A
C599  C604  1.380 .      A
C600  C601  1.348 .      A
C601  C602  1.335 .      A
C602  C603  1.360 .      A
C603  C604  1.361 .      A
C605  N186  1.398 .      A
C605  N188  1.391 .      A
N186  C606  1.350 .      A
C606  C607  1.373 .      A
C606  C611  1.386 .      A
C607  C608  1.384 .      A
C608  C609  1.388 1_655  A
C609  C608  1.388 1_455  A
C609  C610  1.382 .      A
C610  C611  1.366 1_455  A
C611  C610  1.366 1_655  A
C611  N188  1.357 .      A
C612  C613  1.357 .      A
C612  C617  1.363 .      A
C613  C614  1.371 .      A
C614  C615  1.367 .      A
C615  C616  1.360 .      A
C616  C617  1.355 .      A
C618  N190  1.408 .      A
C618  N192  1.411 .      A
N190  C619  1.349 .      A
C619  C620  1.373 .      A
C619  C624  1.378 .      A
C620  C621  1.384 .      A
C621  C622  1.388 .      A
C622  C623  1.385 .      A
C623  C624  1.359 .      A
C624  N192  1.348 .      A
