data_str_m1_o12216_ATO
_audit_creation_date              2015-10-01T06:47:55-0700
_symmetry_space_group_name_H-M    P1
_symmetry_Int_Tables_number       1
_space_group_crystal_system       triclinic
loop_
_symmetry_equiv_pos_as_xyz
  x,y,z
_cell_length_a                    10.2855369
_cell_length_b                    24.8756187
_cell_length_c                    23.3991040
_cell_angle_alpha                 64.7569748
_cell_angle_beta                  98.3441486
_cell_angle_gamma                 81.2449590
_cell_volume                      5202.26560458

loop_
_atom_site_label
_atom_site_type_symbol
_atom_site_description
_atom_site_fract_x
_atom_site_fract_y
_atom_site_fract_z
_atom_type_partial_charge
Zn1   Zn    Zn3+2 0.135367 0.559366 0.517286 0.000000
Zn2   Zn    Zn3+2 0.254245 0.964862 0.366073 0.000000
Zn3   Zn    Zn3+2 0.889085 0.255368 0.967489 0.000000
Zn4   Zn    Zn3+2 0.526677 0.659845 0.968489 0.000000
Zn5   Zn    Zn3+2 0.549497 0.814354 0.118399 0.000000
Zn6   Zn    Zn3+2 0.007684 0.654900 0.821566 0.000000
Zn7   Zn    Zn3+2 0.867072 0.807865 0.508407 0.000000
Zn8   Zn    Zn3+2 0.541951 0.412590 0.212169 0.000000
Zn9   Zn    Zn3+2 0.002268 0.965050 0.094276 0.000000
Zn10  Zn    Zn3+2 0.270587 0.407616 0.833989 0.000000
Zn11  Zn    Zn3+2 0.090750 0.250371 0.242528 0.000000
Zn12  Zn    Zn3+2 0.607246 0.563301 0.368250 0.000000
C1    C     C_3   0.043961 0.668715 0.169041 0.000000
C2    C     C_R   0.917063 0.684690 0.121071 0.000000
C3    C     C_R   0.906919 0.651766 0.086512 0.000000
C4    C     C_R   0.787093 0.662068 0.043956 0.000000
C5    C     C_R   0.680773 0.706270 0.037316 0.000000
N1    N     N_R   0.550559 0.715597 0.008985 0.000000
C6    C     C_R   0.485048 0.757867 0.025664 0.000000
N2    N     N_R   0.572608 0.773496 0.062624 0.000000
C7    C     C_R   0.692915 0.739426 0.070112 0.000000
C8    C     C_R   0.809271 0.729474 0.113170 0.000000
S1    S     S_3+2 0.303606 0.784091 0.011222 0.000000
O1    O     O_2   0.223473 0.744597 0.992169 0.000000
O2    O     O_2   0.249321 0.847257 0.952051 0.000000
O3    O     O_3   0.230297 0.793839 0.068304 0.000000
H1    H     H_    0.066730 0.619394 0.201062 0.000000
H2    H     H_    0.032936 0.694522 0.197293 0.000000
H3    H     H_    0.125457 0.677739 0.143188 0.000000
H4    H     H_    0.992703 0.615919 0.096488 0.000000
H5    H     H_    0.775569 0.634384 0.019663 0.000000
H6    H     H_    0.814653 0.753902 0.141602 0.000000
H7    H     H_    0.217390 0.752689 0.094542 0.000000
C9    C     C_3   0.923064 0.895325 0.788845 0.000000
C10   C     C_R   0.036003 0.839781 0.826474 0.000000
C11   C     C_R   0.161208 0.845268 0.851684 0.000000
C12   C     C_R   0.267974 0.794024 0.887495 0.000000
C13   C     C_R   0.247293 0.738433 0.894044 0.000000
N3    N     N_R   0.340238 0.685254 0.915672 0.000000
C14   C     C_R   0.271944 0.650650 0.896210 0.000000
N4    N     N_R   0.138547 0.678842 0.868717 0.000000
C15   C     C_R   0.126378 0.733992 0.866918 0.000000
C16   C     C_R   0.017773 0.783402 0.834018 0.000000
S2    S     S_3+2 0.354421 0.602414 0.866495 0.000000
O4    O     O_2   0.470231 0.626578 0.837082 0.000000
O5    O     O_2   0.260727 0.611357 0.804364 0.000000
O6    O     O_3   0.409305 0.524346 0.910741 0.000000
H8    H     H_    0.953331 0.928406 0.746441 0.000000
H9    H     H_    0.899696 0.916672 0.820354 0.000000
H10   H     H_    0.831956 0.882637 0.771610 0.000000
H11   H     H_    0.175392 0.890372 0.841627 0.000000
H12   H     H_    0.366183 0.798188 0.906659 0.000000
H13   H     H_    0.923098 0.778877 0.812623 0.000000
H14   H     H_    0.396087 0.514919 0.954688 0.000000
C17   C     C_3   0.391368 0.864799 0.742670 0.000000
C18   C     C_R   0.511312 0.812204 0.769856 0.000000
C19   C     C_R   0.613330 0.813443 0.737272 0.000000
C20   C     C_R   0.724967 0.764884 0.761274 0.000000
C21   C     C_R   0.733726 0.716059 0.819958 0.000000
N5    N     N_R   0.835948 0.666021 0.855107 0.000000
C22   C     C_R   0.793473 0.636935 0.911930 0.000000
N6    N     N_R   0.667406 0.666945 0.911118 0.000000
C23   C     C_R   0.634824 0.715801 0.852519 0.000000
C24   C     C_R   0.520882 0.761716 0.827430 0.000000
S3    S     S_3+2 0.896391 0.568978 0.981653 0.000000
O7    O     O_2   0.950659 0.517872 0.964830 0.000000
O8    O     O_2   0.810730 0.537992 0.028390 0.000000
O9    O     O_3   0.029675 0.571745 0.032559 0.000000
H15   H     H_    0.424662 0.906214 0.739182 0.000000
H16   H     H_    0.320054 0.854760 0.775032 0.000000
H17   H     H_    0.339688 0.872774 0.693778 0.000000
H18   H     H_    0.605131 0.852626 0.692801 0.000000
H19   H     H_    0.802041 0.767117 0.734656 0.000000
H20   H     H_    0.442371 0.757964 0.852154 0.000000
H21   H     H_    0.037703 0.535941 0.074829 0.000000
C25   C     C_3   0.683231 0.498591 0.894302 0.000000
C26   C     C_R   0.649562 0.486123 0.956361 0.000000
C27   C     C_R   0.644935 0.428834 0.001641 0.000000
C28   C     C_R   0.606116 0.421689 0.058204 0.000000
C29   C     C_R   0.572290 0.472673 0.067677 0.000000
N7    N     N_R   0.534127 0.478824 0.118095 0.000000
C30   C     C_R   0.507608 0.541409 0.095011 0.000000
N8    N     N_R   0.540321 0.572575 0.036748 0.000000
C31   C     C_R   0.577536 0.527993 0.021218 0.000000
C32   C     C_R   0.612943 0.535640 0.965647 0.000000
S4    S     S_3+2 0.406431 0.578484 0.127938 0.000000
O10   O     O_2   0.275099 0.556685 0.133366 0.000000
O11   O     O_2   0.351043 0.647598 0.084060 0.000000
O12   O     O_3   0.479983 0.566017 0.204043 0.000000
H22   H     H_    0.712371 0.455340 0.892714 0.000000
H23   H     H_    0.765609 0.522796 0.889166 0.000000
H24   H     H_    0.591820 0.530390 0.857160 0.000000
H25   H     H_    0.672247 0.389552 0.993247 0.000000
H26   H     H_    0.609012 0.376624 0.092128 0.000000
H27   H     H_    0.620175 0.578490 0.931013 0.000000
H28   H     H_    0.575250 0.566595 0.203575 0.000000
C33   C     C_3   0.499871 0.725218 0.449973 0.000000
C34   C     C_R   0.543258 0.732982 0.389381 0.000000
C35   C     C_R   0.517500 0.790685 0.336600 0.000000
C36   C     C_R   0.546229 0.798290 0.278017 0.000000
C37   C     C_R   0.594699 0.747705 0.272243 0.000000
N9    N     N_R   0.584621 0.745124 0.215547 0.000000
C38   C     C_R   0.581946 0.685153 0.234797 0.000000
N10   N     N_R   0.597081 0.650377 0.300457 0.000000
C39   C     C_R   0.606520 0.691208 0.322339 0.000000
C40   C     C_R   0.589808 0.682080 0.381978 0.000000
S5    S     S_3+2 0.495300 0.669081 0.177980 0.000000
O13   O     O_2   0.439706 0.737206 0.134501 0.000000
O14   O     O_2   0.351816 0.659285 0.179684 0.000000
O15   O     O_3   0.563147 0.657510 0.120435 0.000000
H29   H     H_    0.577255 0.689861 0.493261 0.000000
H30   H     H_    0.403322 0.710583 0.449832 0.000000
H31   H     H_    0.486043 0.768646 0.453304 0.000000
H32   H     H_    0.462562 0.829262 0.339078 0.000000
H33   H     H_    0.508962 0.840159 0.234505 0.000000
H34   H     H_    0.587376 0.637270 0.417426 0.000000
H35   H     H_    0.660491 0.638992 0.141751 0.000000
C41   C     C_3   0.369625 0.980974 0.857128 0.000000
C42   C     C_R   0.306756 0.966458 0.913665 0.000000
C43   C     C_R   0.179132 0.001047 0.905429 0.000000
C44   C     C_R   0.118533 0.989025 0.957357 0.000000
C45   C     C_R   0.187447 0.940958 0.016087 0.000000
N11   N     N_R   0.150982 0.921683 0.073033 0.000000
C46   C     C_R   0.258240 0.874942 0.115316 0.000000
N12   N     N_R   0.360573 0.865164 0.086883 0.000000
C47   C     C_R   0.312066 0.907215 0.024293 0.000000
C48   C     C_R   0.375616 0.919023 0.974080 0.000000
S6    S     S_3+2 0.257494 0.828260 0.197503 0.000000
O16   O     O_2   0.115393 0.818791 0.204035 0.000000
O17   O     O_2   0.288114 0.856972 0.242938 0.000000
O18   O     O_3   0.359235 0.755993 0.234063 0.000000
H36   H     H_    0.381436 0.028679 0.838030 0.000000
H37   H     H_    0.303751 0.976128 0.818519 0.000000
H38   H     H_    0.470332 0.949146 0.872369 0.000000
H39   H     H_    0.126873 0.037730 0.858017 0.000000
H40   H     H_    0.020246 0.016056 0.951590 0.000000
H41   H     H_    0.475377 0.892273 0.981433 0.000000
H42   H     H_    0.311673 0.734059 0.214503 0.000000
C49   C     C_3   0.529765 0.936968 0.239906 0.000000
C50   C     C_R   0.568840 0.962586 0.179410 0.000000
C51   C     C_R   0.682639 0.985348 0.182293 0.000000
C52   C     C_R   0.764876 0.986616 0.141479 0.000000
C53   C     C_R   0.748512 0.950430 0.112457 0.000000
N13   N     N_R   0.846457 0.925629 0.094200 0.000000
C54   C     C_R   0.795955 0.881248 0.084412 0.000000
N14   N     N_R   0.674171 0.875068 0.101638 0.000000
C55   C     C_R   0.644670 0.922525 0.114685 0.000000
C56   C     C_R   0.541853 0.935317 0.140342 0.000000
S7    S     S_3+2 0.872769 0.842811 0.044645 0.000000
O19   O     O_2   0.938451 0.884559 0.993403 0.000000
O20   O     O_2   0.770303 0.827044 0.003248 0.000000
O21   O     O_3   0.996022 0.777611 0.091578 0.000000
H43   H     H_    0.605254 0.893776 0.263684 0.000000
H44   H     H_    0.430855 0.926207 0.234241 0.000000
H45   H     H_    0.546242 0.966618 0.262934 0.000000
H46   H     H_    0.719478 0.992553 0.223551 0.000000
H47   H     H_    0.856370 0.002232 0.145051 0.000000
H48   H     H_    0.458915 0.913543 0.142040 0.000000
H49   H     H_    0.044086 0.786580 0.125097 0.000000
C57   C     C_3   0.377169 0.815209 0.601265 0.000000
C58   C     C_R   0.276605 0.788551 0.636661 0.000000
C59   C     C_R   0.308164 0.758420 0.703519 0.000000
C60   C     C_R   0.213966 0.733807 0.736268 0.000000
C61   C     C_R   0.088159 0.739797 0.701302 0.000000
N15   N     N_R   0.987171 0.713659 0.722780 0.000000
C62   C     C_R   0.894107 0.731784 0.664984 0.000000
N16   N     N_R   0.936208 0.766459 0.609661 0.000000
C63   C     C_R   0.057437 0.770647 0.635228 0.000000
C64   C     C_R   0.151509 0.793410 0.602176 0.000000
S8    S     S_3+2 0.743530 0.704279 0.661829 0.000000
O22   O     O_2   0.776457 0.634118 0.692219 0.000000
O23   O     O_2   0.671546 0.722030 0.591803 0.000000
O24   O     O_3   0.619522 0.722740 0.696565 0.000000
H50   H     H_    0.321417 0.847865 0.551175 0.000000
H51   H     H_    0.453236 0.778790 0.600895 0.000000
H52   H     H_    0.427273 0.839849 0.624283 0.000000
H53   H     H_    0.408192 0.752464 0.730325 0.000000
H54   H     H_    0.243774 0.710587 0.787310 0.000000
H55   H     H_    0.133630 0.810018 0.551228 0.000000
H56   H     H_    0.635972 0.686589 0.739484 0.000000
C65   C     C_3   0.363990 0.386446 0.096818 0.000000
C66   C     C_R   0.299395 0.436296 0.030698 0.000000
C67   C     C_R   0.239599 0.493669 0.023464 0.000000
C68   C     C_R   0.171104 0.540323 0.962795 0.000000
C69   C     C_R   0.156699 0.526404 0.912308 0.000000
N17   N     N_R   0.093933 0.564733 0.850064 0.000000
C70   C     C_R   0.127234 0.529638 0.819990 0.000000
N18   N     N_R   0.204230 0.472151 0.860340 0.000000
C71   C     C_R   0.221488 0.471345 0.918644 0.000000
C72   C     C_R   0.298431 0.425699 0.977105 0.000000
S9    S     S_3+2 0.118945 0.560610 0.738167 0.000000
O25   O     O_2   0.092062 0.629224 0.714213 0.000000
O26   O     O_2   0.996499 0.552745 0.698811 0.000000
O27   O     O_3   0.264691 0.543681 0.715733 0.000000
H57   H     H_    0.427289 0.347303 0.094952 0.000000
H58   H     H_    0.284252 0.372139 0.123046 0.000000
H59   H     H_    0.427494 0.404533 0.122494 0.000000
H60   H     H_    0.249723 0.502055 0.065375 0.000000
H61   H     H_    0.133729 0.586606 0.953779 0.000000
H62   H     H_    0.350693 0.382574 0.981341 0.000000
H63   H     H_    0.291880 0.582900 0.697119 0.000000
C73   C     C_3   0.804292 0.815942 0.231568 0.000000
C74   C     C_R   0.856790 0.771908 0.301272 0.000000
C75   C     C_R   0.916559 0.713319 0.313695 0.000000
C76   C     C_R   0.978523 0.670074 0.375700 0.000000
C77   C     C_R   0.976516 0.686243 0.424208 0.000000
N19   N     N_R   0.038703 0.650152 0.486461 0.000000
C78   C     C_R   0.003613 0.687170 0.513876 0.000000
N20   N     N_R   0.920366 0.743826 0.473196 0.000000
C79   C     C_R   0.909568 0.742609 0.414813 0.000000
C80   C     C_R   0.849687 0.787681 0.351910 0.000000
S10   S     S_3+2 0.052231 0.660336 0.594886 0.000000
O28   O     O_2   0.110535 0.592607 0.618466 0.000000
O29   O     O_2   0.927199 0.660148 0.623365 0.000000
O30   O     O_3   0.175851 0.685689 0.626938 0.000000
H64   H     H_    0.887464 0.832675 0.209510 0.000000
H65   H     H_    0.722294 0.852884 0.224560 0.000000
H66   H     H_    0.762625 0.791618 0.206368 0.000000
H67   H     H_    0.917076 0.702007 0.273969 0.000000
H68   H     H_    0.028758 0.625164 0.385719 0.000000
H69   H     H_    0.805439 0.833814 0.341735 0.000000
H70   H     H_    0.252198 0.679407 0.607320 0.000000
C81   C     C_3   0.371721 0.994439 0.577140 0.000000
C82   C     C_R   0.448049 0.950628 0.559046 0.000000
C83   C     C_R   0.584862 0.924392 0.588024 0.000000
C84   C     C_R   0.657582 0.881261 0.574410 0.000000
C85   C     C_R   0.595213 0.871720 0.524729 0.000000
N21   N     N_R   0.659094 0.849651 0.489847 0.000000
C86   C     C_R   0.563225 0.874020 0.433018 0.000000
N22   N     N_R   0.440317 0.907124 0.431109 0.000000
C87   C     C_R   0.464732 0.904062 0.490596 0.000000
C88   C     C_R   0.385518 0.939894 0.509897 0.000000
S11   S     S_3+2 0.617244 0.882311 0.365334 0.000000
O31   O     O_2   0.684252 0.925401 0.384120 0.000000
O32   O     O_2   0.466970 0.912946 0.352145 0.000000
O33   O     O_3   0.665243 0.814500 0.435470 0.000000
H71   H     H_    0.370961 0.970775 0.629273 0.000000
H72   H     H_    0.266116 0.012387 0.547526 0.000000
H73   H     H_    0.420839 0.033009 0.568433 0.000000
H74   H     H_    0.635211 0.937707 0.622076 0.000000
H75   H     H_    0.764484 0.861889 0.596343 0.000000
H76   H     H_    0.283852 0.965276 0.481906 0.000000
H77   H     H_    0.690989 0.783327 0.421119 0.000000
C89   C     C_3   0.818455 0.125292 0.378658 0.000000
C90   C     C_R   0.856185 0.057909 0.403911 0.000000
C91   C     C_R   0.769168 0.023400 0.432012 0.000000
C92   C     C_R   0.801904 0.960644 0.456383 0.000000
C93   C     C_R   0.919224 0.934028 0.447963 0.000000
N23   N     N_R   0.966827 0.874765 0.463738 0.000000
C94   C     C_R   0.084942 0.875989 0.441658 0.000000
N24   N     N_R   0.109464 0.933329 0.413459 0.000000
C95   C     C_R   0.003751 0.968279 0.418937 0.000000
C96   C     C_R   0.976885 0.029891 0.398940 0.000000
S12   S     S_3+2 0.199727 0.810639 0.448182 0.000000
O34   O     O_2   0.135802 0.756839 0.456889 0.000000
O35   O     O_2   0.315950 0.781178 0.509227 0.000000
O36   O     O_3   0.277364 0.822140 0.385369 0.000000
H78   H     H_    0.721536 0.144677 0.341388 0.000000
H79   H     H_    0.898577 0.145055 0.356349 0.000000
H80   H     H_    0.806572 0.136209 0.419105 0.000000
H81   H     H_    0.675489 0.046248 0.434532 0.000000
H82   H     H_    0.735804 0.934624 0.480126 0.000000
H83   H     H_    0.047152 0.055797 0.381092 0.000000
H84   H     H_    0.279540 0.865825 0.367237 0.000000
C97   C     C_3   0.542806 0.137809 0.229686 0.000000
C98   C     C_R   0.509161 0.197381 0.228777 0.000000
C99   C     C_R   0.575474 0.242436 0.199434 0.000000
C100  C     C_R   0.552989 0.294839 0.205700 0.000000
C101  C     C_R   0.441575 0.307684 0.226032 0.000000
N25   N     N_R   0.388466 0.360795 0.225201 0.000000
C102  C     C_R   0.260167 0.351545 0.235528 0.000000
N26   N     N_R   0.237297 0.297446 0.238805 0.000000
C103  C     C_R   0.355172 0.270606 0.235896 0.000000
C104  C     C_R   0.388152 0.213939 0.240666 0.000000
S13   S     S_3+2 0.133950 0.396393 0.252596 0.000000
O37   O     O_2   0.062810 0.458807 0.194533 0.000000
O38   O     O_2   0.188768 0.410213 0.308013 0.000000
O39   O     O_3   0.004195 0.364920 0.278301 0.000000
H85   H     H_    0.580389 0.145433 0.186178 0.000000
H86   H     H_    0.449970 0.120722 0.228698 0.000000
H87   H     H_    0.617995 0.104792 0.275196 0.000000
H88   H     H_    0.625062 0.243115 0.162356 0.000000
H89   H     H_    0.604863 0.328466 0.183807 0.000000
H90   H     H_    0.319047 0.185099 0.247452 0.000000
H91   H     H_    0.034095 0.344068 0.326319 0.000000
C105  C     C_3   0.953602 0.168153 0.499506 0.000000
C106  C     C_R   0.888638 0.217097 0.432400 0.000000
C107  C     C_R   0.765223 0.256534 0.420870 0.000000
C108  C     C_R   0.703294 0.303303 0.359096 0.000000
C109  C     C_R   0.768237 0.309072 0.310333 0.000000
N27   N     N_R   0.730506 0.352618 0.247931 0.000000
C110  C     C_R   0.834392 0.336732 0.222350 0.000000
N28   N     N_R   0.930057 0.285330 0.265901 0.000000
C111  C     C_R   0.887317 0.269486 0.321202 0.000000
C112  C     C_R   0.951278 0.223258 0.381995 0.000000
S14   S     S_3+2 0.875748 0.385046 0.149390 0.000000
O40   O     O_2   0.801491 0.452172 0.121643 0.000000
O41   O     O_2   0.838221 0.369324 0.093411 0.000000
O42   O     O_3   0.043302 0.385764 0.154563 0.000000
H92   H     H_    0.975266 0.189249 0.531998 0.000000
H93   H     H_    0.049523 0.140794 0.499646 0.000000
H94   H     H_    0.884346 0.137880 0.517299 0.000000
H95   H     H_    0.718041 0.251089 0.460748 0.000000
H96   H     H_    0.608843 0.334796 0.349991 0.000000
H97   H     H_    0.047478 0.193285 0.390294 0.000000
H98   H     H_    0.076200 0.358652 0.136046 0.000000
C113  C     C_3   0.099260 0.557369 0.327674 0.000000
C114  C     C_R   0.209216 0.540514 0.299483 0.000000
C115  C     C_R   0.184809 0.515590 0.257844 0.000000
C116  C     C_R   0.292136 0.485040 0.244539 0.000000
C117  C     C_R   0.419276 0.478823 0.276430 0.000000
N29   N     N_R   0.534877 0.455281 0.266766 0.000000
C118  C     C_R   0.629862 0.474474 0.295769 0.000000
N30   N     N_R   0.574517 0.510110 0.322969 0.000000
C119  C     C_R   0.442517 0.510715 0.309849 0.000000
C120  C     C_R   0.337790 0.544476 0.319515 0.000000
S15   S     S_3+2 0.799662 0.465886 0.283143 0.000000
O43   O     O_2   0.790212 0.403701 0.334932 0.000000
O44   O     O_2   0.756224 0.514083 0.305676 0.000000
O45   O     O_3   0.685724 0.478709 0.214812 0.000000
H99   H     H_    0.038740 0.522441 0.338770 0.000000
H100  H     H_    0.030991 0.602710 0.294381 0.000000
H101  H     H_    0.148065 0.555967 0.373754 0.000000
H102  H     H_    0.080587 0.518288 0.239987 0.000000
H103  H     H_    0.280031 0.463139 0.213768 0.000000
H104  H     H_    0.350846 0.575399 0.338956 0.000000
H105  H     H_    0.720951 0.505354 0.178308 0.000000
C121  C     C_3   0.478470 0.083691 0.144877 0.000000
C122  C     C_R   0.367811 0.054404 0.154146 0.000000
C123  C     C_R   0.310098 0.046011 0.102898 0.000000
C124  C     C_R   0.216884 0.012310 0.110166 0.000000
C125  C     C_R   0.184975 0.988093 0.169521 0.000000
N31   N     N_R   0.088137 0.958458 0.182893 0.000000
C126  C     C_R   0.100857 0.942129 0.248604 0.000000
N32   N     N_R   0.197942 0.964095 0.274395 0.000000
C127  C     C_R   0.244106 0.994674 0.221244 0.000000
C128  C     C_R   0.334443 0.030310 0.214036 0.000000
S16   S     S_3+2 0.998391 0.897841 0.294899 0.000000
O46   O     O_2   0.872217 0.902328 0.248483 0.000000
O47   O     O_2   0.934191 0.924211 0.335584 0.000000
O48   O     O_3   0.057942 0.820636 0.342999 0.000000
H106  H     H_    0.522629 0.072171 0.110069 0.000000
H107  H     H_    0.545559 0.063195 0.193443 0.000000
H108  H     H_    0.437462 0.133405 0.121803 0.000000
H109  H     H_    0.336835 0.066463 0.056550 0.000000
H110  H     H_    0.164903 0.011671 0.067671 0.000000
H111  H     H_    0.381915 0.036613 0.254299 0.000000
H112  H     H_    0.066360 0.803677 0.311993 0.000000
C129  C     C_3   0.561955 0.196829 0.790736 0.000000
C130  C     C_R   0.661044 0.158279 0.854131 0.000000
C131  C     C_R   0.684352 0.094747 0.881283 0.000000
C132  C     C_R   0.776575 0.057418 0.940169 0.000000
C133  C     C_R   0.844315 0.085413 0.970018 0.000000
N33   N     N_R   0.937572 0.058511 0.026903 0.000000
C134  C     C_R   0.969632 0.108499 0.031391 0.000000
N34   N     N_R   0.895664 0.164721 0.982728 0.000000
C135  C     C_R   0.820154 0.148098 0.943738 0.000000
C136  C     C_R   0.728866 0.185761 0.885678 0.000000
S17   S     S_3+2 0.067178 0.101317 0.101697 0.000000
O49   O     O_2   0.011884 0.068317 0.161171 0.000000
O50   O     O_2   0.956703 0.158736 0.081786 0.000000
O51   O     O_3   0.176335 0.142800 0.114402 0.000000
H113  H     H_    0.595387 0.186226 0.752933 0.000000
H114  H     H_    0.554854 0.245932 0.776787 0.000000
H115  H     H_    0.461403 0.186871 0.795071 0.000000
H116  H     H_    0.629821 0.074304 0.856048 0.000000
H117  H     H_    0.795038 0.008121 0.961481 0.000000
H118  H     H_    0.710842 0.234988 0.865377 0.000000
H119  H     H_    0.221455 0.151858 0.077948 0.000000
C137  C     C_3   0.716212 0.455625 0.597330 0.000000
C138  C     C_R   0.843705 0.454543 0.636540 0.000000
C139  C     C_R   0.866749 0.430476 0.703333 0.000000
C140  C     C_R   0.987579 0.430088 0.738538 0.000000
C141  C     C_R   0.082173 0.452713 0.705743 0.000000
N35   N     N_R   0.212024 0.446815 0.731466 0.000000
C142  C     C_R   0.261678 0.471241 0.675839 0.000000
N36   N     N_R   0.163171 0.497899 0.617902 0.000000
C143  C     C_R   0.055194 0.480189 0.639812 0.000000
C144  C     C_R   0.939432 0.478207 0.604929 0.000000
S18   S     S_3+2 0.438742 0.453674 0.680664 0.000000
O52   O     O_2   0.491744 0.410290 0.752761 0.000000
O53   O     O_2   0.514734 0.503116 0.676688 0.000000
O54   O     O_3   0.521833 0.406992 0.654472 0.000000
H120  H     H_    0.708401 0.408140 0.609889 0.000000
H121  H     H_    0.718251 0.480043 0.545573 0.000000
H122  H     H_    0.630042 0.481781 0.605423 0.000000
H123  H     H_    0.791641 0.410728 0.727629 0.000000
H124  H     H_    0.007029 0.413218 0.789842 0.000000
H125  H     H_    0.926599 0.489716 0.555268 0.000000
H126  H     H_    0.565331 0.368529 0.694657 0.000000
C145  C     C_3   0.081371 0.164216 0.800697 0.000000
C146  C     C_R   0.112023 0.211319 0.820201 0.000000
C147  C     C_R   0.195651 0.247991 0.789959 0.000000
C148  C     C_R   0.224040 0.293021 0.806262 0.000000
C149  C     C_R   0.168590 0.299115 0.853715 0.000000
N37   N     N_R   0.173363 0.342619 0.873001 0.000000
C150  C     C_R   0.084795 0.333533 0.913008 0.000000
N38   N     N_R   0.031206 0.284409 0.920741 0.000000
C151  C     C_R   0.085424 0.263972 0.882665 0.000000
C152  C     C_R   0.054743 0.219429 0.866962 0.000000
S19   S     S_3+2 0.998340 0.392304 0.928556 0.000000
O55   O     O_2   0.078983 0.405751 0.979025 0.000000
O56   O     O_2   0.882350 0.371834 0.960393 0.000000
O57   O     O_3   0.926038 0.462905 0.864829 0.000000
H127  H     H_    0.029761 0.186773 0.748386 0.000000
H128  H     H_    0.014667 0.139060 0.829822 0.000000
H129  H     H_    0.177286 0.131831 0.808978 0.000000
H130  H     H_    0.236996 0.241912 0.752622 0.000000
H131  H     H_    0.286403 0.322648 0.782069 0.000000
H132  H     H_    0.985971 0.192736 0.888908 0.000000
H133  H     H_    0.965482 0.490726 0.878180 0.000000
C153  C     C_3   0.588566 0.563173 0.743907 0.000000
C154  C     C_R   0.615173 0.495341 0.781529 0.000000
C155  C     C_R   0.741683 0.459962 0.791694 0.000000
C156  C     C_R   0.780275 0.398526 0.837687 0.000000
C157  C     C_R   0.688396 0.373475 0.871239 0.000000
N39   N     N_R   0.699546 0.314225 0.912707 0.000000
C158  C     C_R   0.564961 0.312990 0.911218 0.000000
N40   N     N_R   0.475498 0.369678 0.873474 0.000000
C159  C     C_R   0.558952 0.406571 0.853923 0.000000
C160  C     C_R   0.520709 0.467982 0.812346 0.000000
S20   S     S_3+2 0.510242 0.244366 0.951476 0.000000
O58   O     O_2   0.618106 0.185921 0.970469 0.000000
O59   O     O_2   0.396453 0.238619 0.905924 0.000000
O60   O     O_3   0.451129 0.233582 0.019348 0.000000
H134  H     H_    0.663938 0.579122 0.767766 0.000000
H135  H     H_    0.486905 0.584846 0.744403 0.000000
H136  H     H_    0.598502 0.577188 0.693303 0.000000
H137  H     H_    0.810878 0.482139 0.764691 0.000000
H138  H     H_    0.873347 0.369839 0.842650 0.000000
H139  H     H_    0.422626 0.493778 0.807530 0.000000
H140  H     H_    0.430189 0.275080 0.016212 0.000000
C161  C     C_3   0.494073 0.177470 0.473624 0.000000
C162  C     C_R   0.435208 0.143571 0.441449 0.000000
C163  C     C_R   0.489619 0.081349 0.465375 0.000000
C164  C     C_R   0.440779 0.048858 0.434721 0.000000
C165  C     C_R   0.326222 0.078174 0.385276 0.000000
N41   N     N_R   0.251070 0.055517 0.352121 0.000000
C166  C     C_R   0.158476 0.108085 0.306926 0.000000
N42   N     N_R   0.172390 0.160670 0.309344 0.000000
C167  C     C_R   0.276664 0.140141 0.360635 0.000000
C168  C     C_R   0.330153 0.174268 0.386597 0.000000
S21   S     S_3+2 0.027991 0.107805 0.253258 0.000000
O61   O     O_2   0.155339 0.067703 0.253406 0.000000
O62   O     O_2   0.033967 0.147629 0.183512 0.000000
O63   O     O_3   0.969789 0.044231 0.261985 0.000000
H141  H     H_    0.483621 0.158050 0.524612 0.000000
H142  H     H_    0.440288 0.226536 0.447354 0.000000
H143  H     H_    0.602782 0.172924 0.473148 0.000000
H144  H     H_    0.576232 0.058870 0.506398 0.000000
H145  H     H_    0.497908 0.004284 0.445999 0.000000
H146  H     H_    0.288186 0.222941 0.366266 0.000000
H147  H     H_    0.020124 0.012492 0.305878 0.000000
C169  C     C_3   0.714040 0.121972 0.116340 0.000000
C170  C     C_R   0.750085 0.170772 0.129604 0.000000
C171  C     C_R   0.797663 0.162464 0.192291 0.000000
C172  C     C_R   0.855514 0.205982 0.201141 0.000000
C173  C     C_R   0.891683 0.246476 0.148028 0.000000
N43   N     N_R   0.014043 0.258588 0.152452 0.000000
C174  C     C_R   0.039368 0.267737 0.092879 0.000000
N44   N     N_R   0.934428 0.264032 0.052009 0.000000
C175  C     C_R   0.843389 0.252133 0.087620 0.000000
C176  C     C_R   0.752597 0.222291 0.076827 0.000000
S22   S     S_3+2 0.203628 0.263715 0.077946 0.000000
O64   O     O_2   0.242689 0.324583 0.058905 0.000000
O65   O     O_2   0.211837 0.254294 0.017782 0.000000
O66   O     O_3   0.338509 0.211980 0.137349 0.000000
H148  H     H_    0.786869 0.107549 0.092177 0.000000
H149  H     H_    0.615562 0.142446 0.081197 0.000000
H150  H     H_    0.719960 0.082940 0.162619 0.000000
H151  H     H_    0.789006 0.122963 0.233913 0.000000
H152  H     H_    0.899486 0.198824 0.249375 0.000000
H153  H     H_    0.726997 0.224932 0.029390 0.000000
H154  H     H_    0.415692 0.226294 0.120006 0.000000
C177  C     C_3   0.428689 0.327210 0.610180 0.000000
C178  C     C_R   0.450922 0.386984 0.565104 0.000000
C179  C     C_R   0.557493 0.388185 0.534775 0.000000
C180  C     C_R   0.577417 0.443337 0.491385 0.000000
C181  C     C_R   0.491303 0.496409 0.479753 0.000000
N45   N     N_R   0.480685 0.553397 0.432518 0.000000
C182  C     C_R   0.364282 0.586070 0.437161 0.000000
N46   N     N_R   0.308380 0.551146 0.486458 0.000000
C183  C     C_R   0.389964 0.495200 0.511210 0.000000
C184  C     C_R   0.367159 0.441210 0.554450 0.000000
S23   S     S_3+2 0.269828 0.660216 0.375273 0.000000
O67   O     O_2   0.356025 0.703931 0.343628 0.000000
O68   O     O_2   0.193557 0.695683 0.404788 0.000000
O69   O     O_3   0.152863 0.667165 0.311128 0.000000
H155  H     H_    0.340529 0.334912 0.630331 0.000000
H156  H     H_    0.520138 0.301216 0.650491 0.000000
H157  H     H_    0.409307 0.300525 0.583460 0.000000
H158  H     H_    0.624476 0.345737 0.544553 0.000000
H159  H     H_    0.660268 0.444910 0.468898 0.000000
H160  H     H_    0.281689 0.440728 0.576266 0.000000
H161  H     H_    0.206242 0.667447 0.279157 0.000000
C185  C     C_3   0.226092 0.351786 0.459482 0.000000
C186  C     C_R   0.107050 0.401312 0.445971 0.000000
C187  C     C_R   0.977426 0.394827 0.429369 0.000000
C188  C     C_R   0.865862 0.440891 0.416216 0.000000
C189  C     C_R   0.887616 0.490445 0.424201 0.000000
N47   N     N_R   0.794485 0.536483 0.420934 0.000000
C190  C     C_R   0.868778 0.563568 0.449635 0.000000
N48   N     N_R   0.004096 0.537540 0.466484 0.000000
C191  C     C_R   0.012959 0.492856 0.448271 0.000000
C192  C     C_R   0.125470 0.451816 0.454000 0.000000
S24   S     S_3+2 0.802204 0.601197 0.494078 0.000000
O70   O     O_2   0.775219 0.671144 0.461119 0.000000
O71   O     O_2   0.913591 0.586354 0.553538 0.000000
O72   O     O_3   0.667819 0.582684 0.527854 0.000000
H162  H     H_    0.224047 0.309647 0.502664 0.000000
H163  H     H_    0.320849 0.365807 0.469156 0.000000
H164  H     H_    0.222274 0.342035 0.417418 0.000000
H165  H     H_    0.964620 0.353295 0.427353 0.000000
H166  H     H_    0.764926 0.435790 0.406043 0.000000
H167  H     H_    0.224162 0.459385 0.461925 0.000000
H168  H     H_    0.700835 0.571794 0.574219 0.000000

loop_
_geom_bond_atom_site_label_1
_geom_bond_atom_site_label_2
_geom_bond_distance
_geom_bond_site_symmetry_2
_ccdc_geom_bond_type
Zn1   N19   2.080 .      S
Zn1   N36   2.136 .      S
Zn1   N46   2.029 .      S
Zn1   N48   1.959 .      S
Zn2   N22   2.120 .      S
Zn2   N24   2.038 .      S
Zn2   N32   2.148 .      S
Zn2   N41   2.131 1_565  S
Zn3   N34   2.116 .      S
Zn3   N38   1.992 1_655  S
Zn3   N39   2.096 .      S
Zn3   N44   2.074 1_556  S
Zn4   N1    2.010 1_556  S
Zn4   N3    1.970 .      S
Zn4   N6    2.090 .      S
Zn4   N8    2.042 1_556  S
Zn5   N2    1.985 .      S
Zn5   N9    2.121 .      S
Zn5   N12   1.990 .      S
Zn5   N14   2.076 .      S
Zn6   N4    1.938 .      S
Zn6   N5    2.062 1_455  S
Zn6   N15   2.099 1_455  S
Zn6   N17   2.052 .      S
Zn7   N16   2.094 .      S
Zn7   N20   2.122 .      S
Zn7   N21   2.125 .      S
Zn7   N23   2.065 .      S
Zn8   N7    2.093 .      S
Zn8   N25   2.161 .      S
Zn8   N27   2.067 .      S
Zn8   N29   1.981 .      S
Zn9   N11   1.981 .      S
Zn9   N13   2.002 1_455  S
Zn9   N31   2.059 .      S
Zn9   N33   2.105 1_465  S
Zn10  N18   2.014 .      S
Zn10  N35   2.115 .      S
Zn10  N37   1.986 .      S
Zn10  N40   2.067 .      S
Zn11  N26   2.035 .      S
Zn11  N28   2.004 1_455  S
Zn11  N42   2.050 .      S
Zn11  N43   2.051 .      S
Zn12  N10   2.042 .      S
Zn12  N30   2.053 .      S
Zn12  N45   2.090 .      S
Zn12  N47   1.973 .      S
C1    C2    1.469 1_455  S
C1    H1    1.095 .      S
C1    H2    1.106 .      S
C1    H3    1.099 .      S
C2    C1    1.469 1_655  S
C3    H4    1.073 .      S
C4    H5    1.073 .      S
N1    Zn4   2.010 1_554  S
C6    S1    1.811 .      S
C8    H6    1.077 .      S
S1    O3    1.710 .      S
O3    H7    0.986 .      S
C9    C10   1.487 1_655  S
C9    H8    1.109 .      S
C9    H9    1.109 .      S
C9    H10   1.109 .      S
C10   C9    1.487 1_455  S
C11   H11   1.082 .      S
C12   H12   1.083 .      S
C14   S2    1.793 .      S
C16   H13   1.073 1_455  S
S2    O6    1.716 .      S
O6    H14   0.988 .      S
H13   C16   1.073 1_655  S
C17   C18   1.486 .      S
C17   H15   1.109 .      S
C17   H16   1.109 .      S
C17   H17   1.108 .      S
C19   H18   1.060 .      S
C20   H19   1.071 .      S
N5    Zn6   2.062 1_655  S
C22   S3    1.800 .      S
C24   H20   1.053 .      S
S3    O9    1.711 1_656  S
O9    S3    1.711 1_454  S
O9    H21   0.990 .      S
C25   C26   1.456 .      S
C25   H22   1.090 .      S
C25   H23   1.104 .      S
C25   H24   1.102 .      S
C27   H25   1.081 1_554  S
C28   H26   1.054 .      S
C30   S4    1.753 .      S
N8    Zn4   2.042 1_554  S
C32   H27   1.050 .      S
S4    O12   1.705 .      S
O12   H28   0.984 .      S
H25   C27   1.081 1_556  S
C33   C34   1.491 .      S
C33   H29   1.107 .      S
C33   H30   1.109 .      S
C33   H31   1.105 .      S
C35   H32   1.066 .      S
C36   H33   1.063 .      S
C38   S5    1.714 .      S
C40   H34   1.076 .      S
S5    O15   1.710 .      S
O15   H35   0.991 .      S
C41   C42   1.487 .      S
C41   H36   1.109 1_565  S
C41   H37   1.109 .      S
C41   H38   1.109 .      S
C43   H39   1.080 .      S
C44   H40   1.081 1_565  S
C46   S6    1.775 .      S
C48   H41   1.081 .      S
S6    O18   1.707 .      S
O18   H42   0.988 .      S
H36   C41   1.109 1_545  S
H40   C44   1.081 1_545  S
C49   C50   1.430 .      S
C49   H43   1.085 .      S
C49   H44   1.095 .      S
C49   H45   1.102 .      S
C51   H46   1.082 .      S
C52   H47   1.077 1_565  S
N13   Zn9   2.002 1_655  S
C54   S7    1.774 .      S
C56   H48   1.075 .      S
S7    O21   1.701 .      S
O21   H49   0.990 1_655  S
H47   C52   1.077 1_545  S
H49   O21   0.990 1_455  S
C57   C58   1.478 .      S
C57   H50   1.102 .      S
C57   H51   1.107 .      S
C57   H52   1.108 .      S
C59   H53   1.077 .      S
C60   H54   1.051 .      S
N15   Zn6   2.099 1_655  S
C62   S8    1.790 .      S
C64   H55   1.058 .      S
S8    O24   1.714 .      S
O24   H56   0.990 .      S
C65   C66   1.479 .      S
C65   H57   1.107 .      S
C65   H58   1.107 .      S
C65   H59   1.094 .      S
C67   H60   1.081 .      S
C68   H61   1.073 .      S
C70   S9    1.715 .      S
C72   H62   1.081 .      S
S9    O27   1.710 .      S
O27   H63   0.988 .      S
C73   C74   1.481 .      S
C73   H64   1.107 .      S
C73   H65   1.085 .      S
C73   H66   1.099 .      S
C75   H67   1.080 .      S
C76   H68   1.066 1_655  S
C78   S10   1.683 .      S
C80   H69   1.076 .      S
S10   O30   1.717 .      S
O30   H70   0.990 .      S
H68   C76   1.066 1_455  S
C81   C82   1.488 .      S
C81   H71   1.107 .      S
C81   H72   1.109 1_565  S
C81   H73   1.108 1_565  S
C83   H74   1.082 .      S
C84   H75   1.081 .      S
C86   S11   1.694 .      S
C88   H76   1.081 .      S
S11   O33   1.712 .      S
O33   H77   0.985 .      S
H72   C81   1.109 1_545  S
H73   C81   1.108 1_545  S
C89   C90   1.483 .      S
C89   H78   1.109 .      S
C89   H79   1.106 .      S
C89   H80   1.108 .      S
C91   H81   1.065 .      S
C92   H82   1.061 .      S
C94   S12   1.792 .      S
C96   H83   1.054 1_655  S
S12   O36   1.712 .      S
O36   H84   0.989 .      S
H83   C96   1.054 1_455  S
C97   C98   1.460 .      S
C97   H85   1.093 .      S
C97   H86   1.104 .      S
C97   H87   1.108 .      S
C99   H88   1.064 .      S
C100  H89   1.047 .      S
C102  S13   1.783 .      S
C104  H90   1.066 .      S
S13   O39   1.704 .      S
O39   H91   0.990 .      S
C105  C106  1.487 .      S
C105  H92   1.109 .      S
C105  H93   1.109 1_655  S
C105  H94   1.109 .      S
C107  H95   1.081 .      S
C108  H96   1.081 .      S
C110  S14   1.777 .      S
N28   Zn11  2.004 1_655  S
C112  H97   1.081 1_655  S
S14   O42   1.713 1_655  S
O42   S14   1.713 1_455  S
O42   H98   0.990 .      S
H93   C105  1.109 1_455  S
H97   C112  1.081 1_455  S
C113  C114  1.483 .      S
C113  H99   1.109 .      S
C113  H100  1.106 .      S
C113  H101  1.105 .      S
C115  H102  1.074 .      S
C116  H103  1.077 .      S
C118  S15   1.809 .      S
C120  H104  1.062 .      S
S15   O45   1.714 .      S
O45   H105  0.990 .      S
C121  C122  1.436 .      S
C121  H106  1.104 .      S
C121  H107  1.095 .      S
C121  H108  1.097 .      S
C123  H109  1.081 .      S
C124  H110  1.066 .      S
C126  S16   1.779 1_455  S
C128  H111  1.080 .      S
S16   C126  1.779 1_655  S
S16   O48   1.711 1_655  S
O48   S16   1.711 1_455  S
O48   H112  0.990 .      S
C129  C130  1.486 .      S
C129  H113  1.109 .      S
C129  H114  1.109 .      S
C129  H115  1.108 .      S
C131  H116  1.081 .      S
C132  H117  1.081 .      S
N33   Zn9   2.105 1_645  S
C134  S17   1.721 1_655  S
C136  H118  1.081 .      S
S17   C134  1.721 1_455  S
S17   O51   1.712 .      S
O51   H119  0.988 .      S
C137  C138  1.477 .      S
C137  H120  1.108 .      S
C137  H121  1.104 .      S
C137  H122  1.106 .      S
C139  H123  1.080 .      S
C140  H124  1.064 1_655  S
C142  S18   1.782 .      S
C144  H125  1.054 .      S
S18   O54   1.706 .      S
O54   H126  0.990 .      S
H124  C140  1.064 1_455  S
C145  C146  1.486 .      S
C145  H127  1.109 .      S
C145  H128  1.109 .      S
C145  H129  1.109 .      S
C147  H130  1.081 .      S
C148  H131  1.081 .      S
C150  S19   1.792 1_455  S
N38   Zn3   1.992 1_455  S
C152  H132  1.078 1_455  S
S19   C150  1.792 1_655  S
S19   O57   1.705 .      S
O57   H133  0.987 .      S
H132  C152  1.078 1_655  S
C153  C154  1.490 .      S
C153  H134  1.108 .      S
C153  H135  1.105 .      S
C153  H136  1.108 .      S
C155  H137  1.078 .      S
C156  H138  1.062 .      S
C158  S20   1.787 .      S
C160  H139  1.073 .      S
S20   O60   1.712 1_556  S
O60   S20   1.712 1_554  S
O60   H140  0.990 .      S
C161  C162  1.486 .      S
C161  H141  1.109 .      S
C161  H142  1.109 .      S
C161  H143  1.109 .      S
C163  H144  1.082 .      S
C164  H145  1.073 .      S
N41   Zn2   2.131 1_545  S
C166  S21   1.703 .      S
C168  H146  1.081 .      S
S21   O63   1.717 1_455  S
O63   S21   1.717 1_655  S
O63   H147  0.988 1_655  S
H147  O63   0.988 1_455  S
C169  C170  1.460 .      S
C169  H148  1.106 .      S
C169  H149  1.098 .      S
C169  H150  1.089 .      S
C171  H151  1.076 .      S
C172  H152  1.080 .      S
C174  S22   1.771 .      S
N44   Zn3   2.074 1_554  S
C176  H153  1.074 .      S
S22   O66   1.698 .      S
O66   H154  0.989 .      S
C177  C178  1.487 .      S
C177  H155  1.109 .      S
C177  H156  1.109 .      S
C177  H157  1.109 .      S
C179  H158  1.081 .      S
C180  H159  1.062 .      S
C182  S23   1.792 .      S
C184  H160  1.078 .      S
S23   O69   1.709 .      S
O69   H161  0.988 .      S
C185  C186  1.488 .      S
C185  H162  1.109 .      S
C185  H163  1.109 .      S
C185  H164  1.107 .      S
C187  H165  1.081 .      S
C188  H166  1.070 .      S
C190  S24   1.808 .      S
C192  H167  1.065 .      S
S24   O72   1.717 .      S
O72   H168  0.990 .      S
C2    C3    1.379 .      A
C2    C8    1.376 .      A
C3    C4    1.381 .      A
C4    C5    1.367 .      A
C5    N1    1.343 .      A
C5    C7    1.352 .      A
N1    C6    1.387 .      A
C6    N2    1.370 .      A
N2    C7    1.331 .      A
C7    C8    1.362 .      A
C10   C11   1.388 .      A
C10   C16   1.383 .      A
C11   C12   1.389 .      A
C12   C13   1.378 .      A
C13   N3    1.350 .      A
C13   C15   1.354 .      A
N3    C14   1.366 .      A
C14   N4    1.362 .      A
N4    C15   1.340 .      A
C15   C16   1.370 .      A
C18   C19   1.380 .      A
C18   C24   1.372 .      A
C19   C20   1.380 .      A
C20   C21   1.370 .      A
C21   N5    1.345 .      A
C21   C23   1.356 .      A
N5    C22   1.388 .      A
C22   N6    1.387 .      A
N6    C23   1.338 .      A
C23   C24   1.358 .      A
C26   C27   1.380 1_556  A
C26   C32   1.348 .      A
C27   C26   1.380 1_554  A
C27   C28   1.385 .      A
C28   C29   1.381 .      A
C29   N7    1.356 .      A
C29   C31   1.357 .      A
N7    C30   1.379 .      A
C30   N8    1.373 .      A
N8    C31   1.328 .      A
C31   C32   1.344 1_554  A
C32   C31   1.344 1_556  A
C34   C35   1.390 .      A
C34   C40   1.374 .      A
C35   C36   1.384 .      A
C36   C37   1.350 .      A
C37   N9    1.345 .      A
C37   C39   1.366 .      A
N9    C38   1.368 .      A
C38   N10   1.374 .      A
N10   C39   1.328 .      A
C39   C40   1.356 .      A
C42   C43   1.394 1_565  A
C42   C48   1.387 .      A
C43   C42   1.394 1_545  A
C43   C44   1.386 1_545  A
C44   C43   1.386 1_565  A
C44   C45   1.371 1_556  A
C45   C44   1.371 1_554  A
C45   N11   1.342 .      A
C45   C47   1.359 .      A
N11   C46   1.364 .      A
C46   N12   1.369 .      A
N12   C47   1.346 .      A
C47   C48   1.372 1_554  A
C48   C47   1.372 1_556  A
C50   C51   1.381 .      A
C50   C56   1.373 .      A
C51   C52   1.358 .      A
C52   C53   1.354 .      A
C53   N13   1.319 .      A
C53   C55   1.355 .      A
N13   C54   1.377 .      A
C54   N14   1.381 .      A
N14   C55   1.343 .      A
C55   C56   1.351 .      A
C58   C59   1.376 .      A
C58   C64   1.375 .      A
C59   C60   1.377 .      A
C60   C61   1.377 .      A
C61   N15   1.354 1_455  A
C61   C63   1.361 .      A
N15   C61   1.354 1_655  A
N15   C62   1.386 .      A
C62   N16   1.390 .      A
N16   C63   1.342 1_655  A
C63   N16   1.342 1_455  A
C63   C64   1.366 .      A
C66   C67   1.393 .      A
C66   C72   1.386 1_554  A
C67   C68   1.384 1_554  A
C68   C67   1.384 1_556  A
C68   C69   1.361 .      A
C69   N17   1.343 .      A
C69   C71   1.365 .      A
N17   C70   1.370 .      A
C70   N18   1.360 .      A
N18   C71   1.341 .      A
C71   C72   1.369 .      A
C72   C66   1.386 1_556  A
C74   C75   1.379 .      A
C74   C80   1.406 .      A
C75   C76   1.364 .      A
C76   C77   1.358 .      A
C77   N19   1.333 1_655  A
C77   C79   1.374 .      A
N19   C77   1.333 1_455  A
N19   C78   1.364 .      A
C78   N20   1.370 1_455  A
N20   C78   1.370 1_655  A
N20   C79   1.368 .      A
C79   C80   1.386 .      A
C82   C83   1.390 .      A
C82   C88   1.381 .      A
C83   C84   1.389 .      A
C84   C85   1.373 .      A
C85   N21   1.352 .      A
C85   C87   1.378 .      A
N21   C86   1.363 .      A
C86   N22   1.383 .      A
N22   C87   1.345 .      A
C87   C88   1.375 .      A
C90   C91   1.376 .      A
C90   C96   1.374 .      A
C91   C92   1.379 1_545  A
C92   C91   1.379 1_565  A
C92   C93   1.368 .      A
C93   N23   1.346 .      A
C93   C95   1.359 1_655  A
N23   C94   1.387 1_655  A
C94   N23   1.387 1_455  A
C94   N24   1.374 .      A
N24   C95   1.342 .      A
C95   C93   1.359 1_455  A
C95   C96   1.366 1_465  A
C96   C95   1.366 1_645  A
C98   C99   1.380 .      A
C98   C104  1.356 .      A
C99   C100  1.362 .      A
C100  C101  1.348 .      A
C101  N25   1.341 .      A
C101  C103  1.350 .      A
N25   C102  1.411 .      A
C102  N26   1.373 .      A
N26   C103  1.318 .      A
C103  C104  1.350 .      A
C106  C107  1.394 .      A
C106  C112  1.388 .      A
C107  C108  1.386 .      A
C108  C109  1.371 .      A
C109  N27   1.347 .      A
C109  C111  1.365 .      A
N27   C110  1.384 .      A
C110  N28   1.362 .      A
N28   C111  1.344 .      A
C111  C112  1.372 .      A
C114  C115  1.374 .      A
C114  C120  1.370 .      A
C115  C116  1.393 .      A
C116  C117  1.359 .      A
C117  N29   1.337 .      A
C117  C119  1.353 .      A
N29   C118  1.367 .      A
C118  N30   1.396 .      A
N30   C119  1.344 .      A
C119  C120  1.369 .      A
C122  C123  1.371 .      A
C122  C128  1.388 .      A
C123  C124  1.350 .      A
C124  C125  1.371 1_545  A
C125  C124  1.371 1_565  A
C125  N31   1.323 .      A
C125  C127  1.359 .      A
N31   C126  1.392 .      A
C126  N32   1.390 .      A
N32   C127  1.351 .      A
C127  C128  1.359 1_565  A
C128  C127  1.359 1_545  A
C130  C131  1.394 .      A
C130  C136  1.387 .      A
C131  C132  1.386 .      A
C132  C133  1.371 .      A
C133  N33   1.347 1_556  A
C133  C135  1.375 .      A
N33   C133  1.347 1_554  A
N33   C134  1.376 .      A
C134  N34   1.378 1_554  A
N34   C134  1.378 1_556  A
N34   C135  1.349 .      A
C135  C136  1.372 .      A
C138  C139  1.381 .      A
C138  C144  1.371 .      A
C139  C140  1.384 .      A
C140  C141  1.366 1_655  A
C141  C140  1.366 1_455  A
C141  N35   1.341 .      A
C141  C143  1.358 .      A
N35   C142  1.392 .      A
C142  N36   1.391 .      A
N36   C143  1.346 .      A
C143  C144  1.363 1_455  A
C144  C143  1.363 1_655  A
C146  C147  1.392 .      A
C146  C152  1.387 .      A
C147  C148  1.385 .      A
C148  C149  1.372 .      A
C149  N37   1.343 .      A
C149  C151  1.359 .      A
N37   C150  1.374 .      A
C150  N38   1.369 .      A
N38   C151  1.344 .      A
C151  C152  1.372 .      A
C154  C155  1.381 .      A
C154  C160  1.383 .      A
C155  C156  1.393 .      A
C156  C157  1.369 .      A
C157  N39   1.350 .      A
C157  C159  1.356 .      A
N39   C158  1.385 .      A
C158  N40   1.386 .      A
N40   C159  1.336 .      A
C159  C160  1.369 .      A
C162  C163  1.389 .      A
C162  C168  1.381 .      A
C163  C164  1.391 .      A
C164  C165  1.372 .      A
C165  N41   1.360 .      A
C165  C167  1.373 .      A
N41   C166  1.373 .      A
C166  N42   1.361 .      A
N42   C167  1.337 .      A
C167  C168  1.370 .      A
C170  C171  1.391 .      A
C170  C176  1.356 .      A
C171  C172  1.386 .      A
C172  C173  1.370 .      A
C173  N43   1.338 1_655  A
C173  C175  1.367 .      A
N43   C173  1.338 1_455  A
N43   C174  1.384 .      A
C174  N44   1.376 1_455  A
N44   C174  1.376 1_655  A
N44   C175  1.326 .      A
C175  C176  1.338 .      A
C178  C179  1.387 .      A
C178  C184  1.386 .      A
C179  C180  1.383 .      A
C180  C181  1.367 .      A
C181  N45   1.351 .      A
C181  C183  1.357 .      A
N45   C182  1.387 .      A
C182  N46   1.380 .      A
N46   C183  1.339 .      A
C183  C184  1.374 .      A
C186  C187  1.387 1_455  A
C186  C192  1.383 .      A
C187  C186  1.387 1_655  A
C187  C188  1.386 .      A
C188  C189  1.368 .      A
C189  N47   1.344 .      A
C189  C191  1.351 1_655  A
N47   C190  1.372 .      A
C190  N48   1.364 1_655  A
N48   C190  1.364 1_455  A
N48   C191  1.345 .      A
C191  C189  1.351 1_455  A
C191  C192  1.370 .      A
S1    O1    1.535 1_554  D
S1    O2    1.533 1_554  D
O1    S1    1.535 1_556  D
O2    S1    1.533 1_556  D
S2    O4    1.535 .      D
S2    O5    1.531 .      D
S3    O7    1.535 .      D
S3    O8    1.528 1_556  D
O8    S3    1.528 1_554  D
S4    O10   1.533 .      D
S4    O11   1.537 .      D
S5    O13   1.516 .      D
S5    O14   1.535 .      D
S6    O16   1.534 .      D
S6    O17   1.536 .      D
S7    O19   1.536 1_554  D
S7    O20   1.535 .      D
O19   S7    1.536 1_556  D
S8    O22   1.536 .      D
S8    O23   1.536 .      D
S9    O25   1.516 .      D
S9    O26   1.538 1_455  D
O26   S9    1.538 1_655  D
S10   O28   1.519 .      D
S10   O29   1.532 1_455  D
O29   S10   1.532 1_655  D
S11   O31   1.535 .      D
S11   O32   1.539 .      D
S12   O34   1.529 .      D
S12   O35   1.533 .      D
S13   O37   1.536 .      D
S13   O38   1.531 .      D
S14   O40   1.528 .      D
S14   O41   1.534 .      D
S15   O43   1.534 .      D
S15   O44   1.536 .      D
S16   O46   1.523 .      D
S16   O47   1.535 .      D
S17   O49   1.527 .      D
S17   O50   1.527 1_455  D
O50   S17   1.527 1_655  D
S18   O52   1.520 .      D
S18   O53   1.532 .      D
S19   O55   1.527 1_655  D
S19   O56   1.535 .      D
O55   S19   1.527 1_455  D
S20   O58   1.535 .      D
S20   O59   1.531 .      D
S21   O61   1.519 .      D
S21   O62   1.522 .      D
S22   O64   1.521 .      D
S22   O65   1.534 .      D
S23   O67   1.521 .      D
S23   O68   1.529 .      D
S24   O70   1.532 .      D
S24   O71   1.535 .      D
