data_str_m1_o12004_OSI
_audit_creation_date              2015-10-01T06:32:08-0700
_symmetry_space_group_name_H-M    P1
_symmetry_Int_Tables_number       1
_space_group_crystal_system       triclinic
loop_
_symmetry_equiv_pos_as_xyz
  x,y,z
_cell_length_a                    10.3949998
_cell_length_b                    26.2512678
_cell_length_c                    26.5059288
_cell_angle_alpha                 88.5603740
_cell_angle_beta                  101.210031
_cell_angle_gamma                 101.063927
_cell_volume                      6962.56417727

loop_
_atom_site_label
_atom_site_type_symbol
_atom_site_description
_atom_site_fract_x
_atom_site_fract_y
_atom_site_fract_z
_atom_type_partial_charge
Zn1   Zn    Zn3+2 0.785862 0.872169 0.160679 0.000000
Zn2   Zn    Zn3+2 0.094506 0.876561 0.839971 0.000000
Zn3   Zn    Zn3+2 0.798251 0.630874 0.580166 0.000000
Zn4   Zn    Zn3+2 0.471078 0.972408 0.512925 0.000000
Zn5   Zn    Zn3+2 0.967951 0.872165 0.601735 0.000000
Zn6   Zn    Zn3+2 0.136882 0.640511 0.256348 0.000000
Zn7   Zn    Zn3+2 0.354851 0.881689 0.283907 0.000000
Zn8   Zn    Zn3+2 0.249824 0.314261 0.817746 0.000000
Zn9   Zn    Zn3+2 0.188997 0.324796 0.580873 0.000000
Zn10  Zn    Zn3+2 0.704390 0.186951 0.835733 0.000000
Zn11  Zn    Zn3+2 0.691157 0.969361 0.944060 0.000000
Zn12  Zn    Zn3+2 0.451553 0.536557 0.909649 0.000000
Zn13  Zn    Zn3+2 0.202094 0.538101 0.473008 0.000000
Zn14  Zn    Zn3+2 0.642656 0.195840 0.598922 0.000000
Zn15  Zn    Zn3+2 0.572700 0.635502 0.130448 0.000000
Zn16  Zn    Zn3+2 0.952069 0.632303 0.820838 0.000000
C1    C     C_3   0.795757 0.991648 0.212197 0.000000
N1    N     N_3   0.668702 0.002175 0.219850 0.000000
C2    C     C_3   0.563395 0.960033 0.196414 0.000000
C3    C     C_R   0.586668 0.909950 0.220592 0.000000
N2    N     N_R   0.691801 0.887383 0.215385 0.000000
C4    C     C_R   0.704891 0.857393 0.256757 0.000000
C5    C     C_R   0.780095 0.820084 0.265271 0.000000
C6    C     C_R   0.761271 0.786233 0.305770 0.000000
C7    C     C_R   0.680735 0.795350 0.339212 0.000000
C8    C     C_R   0.594038 0.829383 0.325771 0.000000
C9    C     C_R   0.606235 0.858204 0.282795 0.000000
N3    N     N_R   0.524208 0.888491 0.259191 0.000000
H1    H     H_    0.831841 0.964646 0.242057 0.000000
H2    H     H_    0.784232 0.974453 0.173434 0.000000
H3    H     H_    0.870007 0.028489 0.215642 0.000000
H4    H     H_    0.653034 0.035855 0.199738 0.000000
H5    H     H_    0.466491 0.968034 0.202537 0.000000
H6    H     H_    0.563404 0.958264 0.155240 0.000000
H7    H     H_    0.845743 0.817285 0.238785 0.000000
H8    H     H_    0.815273 0.754737 0.314535 0.000000
H9    H     H_    0.681693 0.773827 0.374305 0.000000
H10   H     H_    0.519698 0.833277 0.347855 0.000000
C10   C     C_3   0.006361 0.830641 0.332628 0.000000
N4    N     N_3   0.104553 0.872749 0.319594 0.000000
C11   C     C_3   0.039239 0.905406 0.282475 0.000000
C12   C     C_R   0.074465 0.895839 0.233050 0.000000
N5    N     N_R   0.204448 0.898233 0.228133 0.000000
C13   C     C_R   0.191341 0.886849 0.177735 0.000000
C14   C     C_R   0.287706 0.883087 0.149699 0.000000
C15   C     C_R   0.247755 0.859434 0.101761 0.000000
C16   C     C_R   0.116603 0.834592 0.085918 0.000000
C17   C     C_R   0.022417 0.840189 0.114324 0.000000
C18   C     C_R   0.060506 0.871951 0.156453 0.000000
N6    N     N_R   0.982779 0.879008 0.189379 0.000000
H11   H     H_    0.047090 0.808705 0.365901 0.000000
H12   H     H_    0.925811 0.847485 0.343532 0.000000
H13   H     H_    0.984193 0.802356 0.300787 0.000000
H14   H     H_    0.163296 0.855493 0.300750 0.000000
H15   H     H_    0.929706 0.897069 0.279237 0.000000
H16   H     H_    0.078375 0.946672 0.293895 0.000000
H17   H     H_    0.391214 0.893907 0.165093 0.000000
H18   H     H_    0.321236 0.855233 0.079255 0.000000
H19   H     H_    0.089256 0.809246 0.052628 0.000000
H20   H     H_    0.929832 0.813564 0.110070 0.000000
C19   C     C_3   0.777421 0.766429 0.767642 0.000000
N7    N     N_3   0.845070 0.816059 0.751117 0.000000
C20   C     C_3   0.957775 0.809331 0.728096 0.000000
C21   C     C_R   0.042138 0.860437 0.723676 0.000000
N8    N     N_R   0.041648 0.886306 0.677950 0.000000
C22   C     C_R   0.091653 0.935730 0.693683 0.000000
C23   C     C_R   0.079310 0.978823 0.664332 0.000000
C24   C     C_R   0.097889 0.026056 0.689226 0.000000
C25   C     C_R   0.124394 0.028893 0.742674 0.000000
C26   C     C_R   0.136577 0.984820 0.771576 0.000000
C27   C     C_R   0.124678 0.938856 0.746017 0.000000
N9    N     N_R   0.096578 0.891452 0.766016 0.000000
H21   H     H_    0.691550 0.749231 0.738183 0.000000
H22   H     H_    0.846686 0.739018 0.777018 0.000000
H23   H     H_    0.732332 0.772756 0.800784 0.000000
H24   H     H_    0.884011 0.839323 0.783965 0.000000
H25   H     H_    0.017536 0.784694 0.751915 0.000000
H26   H     H_    0.925720 0.793646 0.688996 0.000000
H27   H     H_    0.050687 0.975466 0.623190 0.000000
H28   H     H_    0.082199 0.060052 0.666757 0.000000
H29   H     H_    0.127197 0.064962 0.761958 0.000000
H30   H     H_    0.139011 0.985474 0.812412 0.000000
C28   C     C_3   0.573778 0.762087 0.656395 0.000000
N10   N     N_3   0.711462 0.770658 0.649209 0.000000
C29   C     C_3   0.703050 0.753674 0.597451 0.000000
C30   C     C_R   0.836718 0.752076 0.585240 0.000000
N11   N     N_R   0.938014 0.794197 0.582152 0.000000
C31   C     C_R   0.035693 0.770473 0.571923 0.000000
C32   C     C_R   0.155400 0.790462 0.557970 0.000000
C33   C     C_R   0.248417 0.757775 0.561618 0.000000
C34   C     C_R   0.218358 0.707029 0.576787 0.000000
C35   C     C_R   0.090933 0.686399 0.582471 0.000000
C36   C     C_R   0.999068 0.718367 0.574194 0.000000
N12   N     N_R   0.871193 0.705362 0.577664 0.000000
H31   H     H_    0.561736 0.790304 0.684597 0.000000
H32   H     H_    0.506785 0.766219 0.619334 0.000000
H33   H     H_    0.544424 0.721874 0.669685 0.000000
H34   H     H_    0.751803 0.741466 0.670359 0.000000
H35   H     H_    0.649867 0.713101 0.598279 0.000000
H36   H     H_    0.649023 0.778014 0.569334 0.000000
H37   H     H_    0.168641 0.827512 0.539450 0.000000
H38   H     H_    0.345794 0.769069 0.552419 0.000000
H39   H     H_    0.293057 0.682871 0.581491 0.000000
H40   H     H_    0.068235 0.646909 0.593892 0.000000
C37   C     C_3   0.428057 0.856485 0.554399 0.000000
N13   N     N_3   0.360532 0.839889 0.596566 0.000000
C38   C     C_3   0.280525 0.876080 0.609064 0.000000
C39   C     C_R   0.228253 0.911203 0.567727 0.000000
N14   N     N_R   0.296248 0.948551 0.539142 0.000000
C40   C     C_R   0.204903 0.977738 0.521413 0.000000
C41   C     C_R   0.218414 0.019484 0.489373 0.000000
C42   C     C_R   0.115685 0.046936 0.479571 0.000000
C43   C     C_R   0.007074 0.033439 0.503680 0.000000
C44   C     C_R   0.993892 0.990056 0.534096 0.000000
C45   C     C_R   0.091625 0.960861 0.539772 0.000000
N15   N     N_R   0.100751 0.917192 0.566692 0.000000
H41   H     H_    0.530106 0.847601 0.562762 0.000000
H42   H     H_    0.372359 0.838626 0.517423 0.000000
H43   H     H_    0.431722 0.896736 0.549451 0.000000
H44   H     H_    0.431656 0.835689 0.629119 0.000000
H45   H     H_    0.190666 0.852479 0.620607 0.000000
H46   H     H_    0.324474 0.897334 0.644493 0.000000
H47   H     H_    0.304646 0.030302 0.471739 0.000000
H48   H     H_    0.121822 0.079858 0.454305 0.000000
H49   H     H_    0.932098 0.056992 0.499249 0.000000
H50   H     H_    0.913693 0.982492 0.554729 0.000000
C46   C     C_3   0.665003 0.839258 0.450996 0.000000
N16   N     N_3   0.647320 0.892449 0.454353 0.000000
C47   C     C_3   0.763494 0.919236 0.489722 0.000000
C48   C     C_R   0.730988 0.921150 0.541524 0.000000
N17   N     N_R   0.627508 0.941652 0.552941 0.000000
C49   C     C_R   0.630529 0.928238 0.602505 0.000000
C50   C     C_R   0.537357 0.931184 0.631530 0.000000
C51   C     C_R   0.548016 0.905051 0.678434 0.000000
C52   C     C_R   0.651492 0.878657 0.694987 0.000000
C53   C     C_R   0.746100 0.878372 0.665460 0.000000
C54   C     C_R   0.731535 0.902861 0.619603 0.000000
N18   N     N_R   0.800359 0.899357 0.582944 0.000000
H51   H     H_    0.571271 0.815184 0.430161 0.000000
H52   H     H_    0.747457 0.838188 0.430324 0.000000
H53   H     H_    0.690286 0.823861 0.490276 0.000000
H54   H     H_    0.565011 0.891522 0.471724 0.000000
H55   H     H_    0.845368 0.897392 0.492239 0.000000
H56   H     H_    0.798796 0.958400 0.476175 0.000000
H57   H     H_    0.458456 0.951749 0.615968 0.000000
H58   H     H_    0.476559 0.902836 0.703000 0.000000
H59   H     H_    0.658984 0.859136 0.731557 0.000000
H60   H     H_    0.823241 0.856558 0.675620 0.000000
C55   C     C_3   0.057763 0.903509 0.455812 0.000000
N19   N     N_3   0.200785 0.916852 0.457486 0.000000
C56   C     C_3   0.216333 0.909473 0.405721 0.000000
C57   C     C_R   0.356294 0.927449 0.399137 0.000000
N20   N     N_R   0.451495 0.954988 0.437076 0.000000
C58   C     C_R   0.552363 0.972530 0.412401 0.000000
C59   C     C_R   0.666202 0.008207 0.430453 0.000000
C60   C     C_R   0.753952 0.023655 0.397277 0.000000
C61   C     C_R   0.719261 0.007974 0.346083 0.000000
C62   C     C_R   0.599416 0.974919 0.327935 0.000000
C63   C     C_R   0.520380 0.955520 0.362650 0.000000
N21   N     N_R   0.399156 0.924105 0.352981 0.000000
H61   H     H_    0.038431 0.878825 0.488915 0.000000
H62   H     H_    0.015498 0.939273 0.454849 0.000000
H63   H     H_    0.007965 0.880504 0.420649 0.000000
H64   H     H_    0.240750 0.887261 0.477970 0.000000
H65   H     H_    0.190949 0.867845 0.400124 0.000000
H66   H     H_    0.151261 0.932412 0.380426 0.000000
H67   H     H_    0.688027 0.022865 0.469572 0.000000
H68   H     H_    0.848624 0.049202 0.410396 0.000000
H69   H     H_    0.784513 0.023075 0.319811 0.000000
H70   H     H_    0.566313 0.968761 0.287277 0.000000
C64   C     C_3   0.367682 0.769971 0.142877 0.000000
N22   N     N_3   0.281177 0.741217 0.175051 0.000000
C65   C     C_3   0.227076 0.775494 0.203009 0.000000
C66   C     C_R   0.252657 0.763831 0.258193 0.000000
N23   N     N_R   0.200661 0.717668 0.279324 0.000000
C67   C     C_R   0.209931 0.732359 0.328274 0.000000
C68   C     C_R   0.130162 0.710349 0.360962 0.000000
C69   C     C_R   0.134002 0.737503 0.405141 0.000000
C70   C     C_R   0.224433 0.783497 0.418146 0.000000
C71   C     C_R   0.300425 0.806013 0.383564 0.000000
C72   C     C_R   0.278836 0.781780 0.337152 0.000000
N24   N     N_R   0.303477 0.803649 0.293343 0.000000
H71   H     H_    0.305490 0.778519 0.106187 0.000000
H72   H     H_    0.435786 0.745325 0.134357 0.000000
H73   H     H_    0.427654 0.806542 0.161336 0.000000
H74   H     H_    0.332066 0.719818 0.202151 0.000000
H75   H     H_    0.279966 0.815161 0.201197 0.000000
H76   H     H_    0.118428 0.772024 0.188017 0.000000
H77   H     H_    0.058691 0.675616 0.350918 0.000000
H78   H     H_    0.066252 0.722684 0.429872 0.000000
H79   H     H_    0.226894 0.803381 0.453476 0.000000
H80   H     H_    0.367530 0.842752 0.391349 0.000000
C73   C     C_3   0.340574 0.201067 0.663521 0.000000
N25   N     N_3   0.288006 0.248439 0.652186 0.000000
C74   C     C_3   0.344879 0.287470 0.693092 0.000000
C75   C     C_R   0.244982 0.319290 0.696477 0.000000
N26   N     N_R   0.188019 0.341989 0.653264 0.000000
C76   C     C_R   0.115019 0.371574 0.671034 0.000000
C77   C     C_R   0.043279 0.405192 0.643740 0.000000
C78   C     C_R   0.987350 0.436674 0.670796 0.000000
C79   C     C_R   0.001975 0.432727 0.723871 0.000000
C80   C     C_R   0.072802 0.397443 0.750270 0.000000
C81   C     C_R   0.127820 0.366784 0.722880 0.000000
N27   N     N_R   0.208162 0.332838 0.740885 0.000000
H81   H     H_    0.260819 0.166687 0.651948 0.000000
H82   H     H_    0.419949 0.197455 0.643065 0.000000
H83   H     H_    0.387692 0.201687 0.703421 0.000000
H84   H     H_    0.185454 0.238917 0.651561 0.000000
H85   H     H_    0.380120 0.272817 0.731163 0.000000
H86   H     H_    0.430410 0.313850 0.682433 0.000000
H87   H     H_    0.032083 0.407070 0.602697 0.000000
H88   H     H_    0.931904 0.464364 0.650687 0.000000
H89   H     H_    0.959053 0.457822 0.744815 0.000000
H90   H     H_    0.089482 0.396036 0.791011 0.000000
C82   C     C_3   0.954892 0.231726 0.734659 0.000000
N28   N     N_3   0.941732 0.184999 0.765903 0.000000
C83   C     C_3   0.015236 0.194210 0.818620 0.000000
C84   C     C_R   0.989695 0.241658 0.839168 0.000000
N29   N     N_R   0.077773 0.288166 0.843296 0.000000
C85   C     C_R   0.008997 0.320406 0.860487 0.000000
C86   C     C_R   0.046055 0.373066 0.869035 0.000000
C87   C     C_R   0.947426 0.400920 0.870604 0.000000
C88   C     C_R   0.816884 0.375661 0.868462 0.000000
C89   C     C_R   0.784684 0.322214 0.863861 0.000000
C90   C     C_R   0.882985 0.295043 0.862075 0.000000
N30   N     N_R   0.868336 0.244350 0.850375 0.000000
H91   H     H_    0.858157 0.241154 0.718017 0.000000
H92   H     H_    0.011006 0.266405 0.757616 0.000000
H93   H     H_    0.993808 0.224101 0.700015 0.000000
H94   H     H_    0.979848 0.156911 0.749590 0.000000
H95   H     H_    0.981286 0.161686 0.843156 0.000000
H96   H     H_    0.123104 0.196756 0.822359 0.000000
H97   H     H_    0.146159 0.393810 0.871153 0.000000
H98   H     H_    0.971282 0.442589 0.868706 0.000000
H99   H     H_    0.738816 0.397898 0.866910 0.000000
H100  H     H_    0.684464 0.303159 0.854780 0.000000
C91   C     C_3   0.448559 0.199178 0.944617 0.000000
N31   N     N_3   0.455708 0.254913 0.942683 0.000000
C92   C     C_3   0.543062 0.275395 0.907435 0.000000
C93   C     C_R   0.485445 0.251801 0.855125 0.000000
N32   N     N_R   0.528705 0.211058 0.835930 0.000000
C94   C     C_R   0.419320 0.188932 0.801787 0.000000
C95   C     C_R   0.402343 0.147557 0.769298 0.000000
C96   C     C_R   0.280126 0.131800 0.737023 0.000000
C97   C     C_R   0.190418 0.165193 0.728395 0.000000
C98   C     C_R   0.222242 0.211634 0.755206 0.000000
C99   C     C_R   0.326116 0.218720 0.795863 0.000000
N33   N     N_R   0.365166 0.259994 0.827434 0.000000
H101  H     H_    0.382307 0.182058 0.971273 0.000000
H102  H     H_    0.407658 0.182117 0.905608 0.000000
H103  H     H_    0.549960 0.190770 0.958529 0.000000
H104  H     H_    0.501421 0.270139 0.979204 0.000000
H105  H     H_    0.552664 0.318207 0.905709 0.000000
H106  H     H_    0.641950 0.265156 0.922203 0.000000
H107  H     H_    0.485729 0.136810 0.758940 0.000000
H108  H     H_    0.268273 0.100264 0.710474 0.000000
H109  H     H_    0.107074 0.158087 0.696248 0.000000
H110  H     H_    0.178315 0.244278 0.743766 0.000000
C100  C     C_3   0.318956 0.440996 0.714619 0.000000
N34   N     N_3   0.335934 0.413525 0.762832 0.000000
C101  C     C_3   0.365892 0.452816 0.802434 0.000000
C102  C     C_R   0.369743 0.429273 0.853421 0.000000
N35   N     N_R   0.337953 0.376936 0.860931 0.000000
C103  C     C_R   0.353819 0.373680 0.912257 0.000000
C104  C     C_R   0.322056 0.330048 0.940188 0.000000
C105  C     C_R   0.346997 0.335358 0.993198 0.000000
C106  C     C_R   0.401808 0.383606 0.016501 0.000000
C107  C     C_R   0.426662 0.427566 0.987137 0.000000
C108  C     C_R   0.397218 0.421615 0.934552 0.000000
N36   N     N_R   0.404700 0.458299 0.898068 0.000000
H111  H     H_    0.336028 0.416561 0.684141 0.000000
H112  H     H_    0.218414 0.451193 0.705629 0.000000
H113  H     H_    0.391187 0.478059 0.718292 0.000000
H114  H     H_    0.420578 0.396956 0.765394 0.000000
H115  H     H_    0.466984 0.474891 0.801923 0.000000
H116  H     H_    0.286268 0.476043 0.795724 0.000000
H117  H     H_    0.276148 0.293244 0.921256 0.000000
H118  H     H_    0.324599 0.301753 0.016646 0.000000
H119  H     H_    0.423626 0.386969 0.057986 0.000000
H120  H     H_    0.471360 0.464421 0.005533 0.000000
C109  C     C_3   0.288979 0.551479 0.614740 0.000000
N37   N     N_3   0.300398 0.516389 0.575738 0.000000
C110  C     C_3   0.204727 0.469509 0.580557 0.000000
C111  C     C_R   0.186358 0.438221 0.533353 0.000000
N38   N     N_R   0.199769 0.462759 0.487997 0.000000
C112  C     C_R   0.219843 0.425353 0.458579 0.000000
C113  C     C_R   0.251334 0.430263 0.410633 0.000000
C114  C     C_R   0.283458 0.387519 0.389887 0.000000
C115  C     C_R   0.288617 0.342275 0.418139 0.000000
C116  C     C_R   0.258464 0.338735 0.466956 0.000000
C117  C     C_R   0.219262 0.380423 0.485400 0.000000
N39   N     N_R   0.194706 0.386499 0.532758 0.000000
H121  H     H_    0.202864 0.570470 0.599765 0.000000
H122  H     H_    0.273377 0.527819 0.648976 0.000000
H123  H     H_    0.381993 0.581150 0.623976 0.000000
H124  H     H_    0.394517 0.507130 0.585748 0.000000
H125  H     H_    0.243554 0.447602 0.614315 0.000000
H126  H     H_    0.111440 0.481303 0.585245 0.000000
H127  H     H_    0.254433 0.466541 0.390506 0.000000
H128  H     H_    0.309591 0.389981 0.352250 0.000000
H129  H     H_    0.319999 0.310125 0.402414 0.000000
H130  H     H_    0.273921 0.305853 0.490951 0.000000
C118  C     C_3   0.769126 0.300898 0.485923 0.000000
N40   N     N_3   0.737808 0.312818 0.535023 0.000000
C119  C     C_3   0.862822 0.321992 0.572083 0.000000
C120  C     C_R   0.911173 0.272942 0.583038 0.000000
N41   N     N_R   0.824764 0.225457 0.578944 0.000000
C121  C     C_R   0.881691 0.197497 0.550122 0.000000
C122  C     C_R   0.829863 0.150021 0.526649 0.000000
C123  C     C_R   0.871986 0.139552 0.482434 0.000000
C124  C     C_R   0.973715 0.173672 0.465661 0.000000
C125  C     C_R   0.037423 0.217655 0.494366 0.000000
C126  C     C_R   0.993948 0.226914 0.538223 0.000000
N42   N     N_R   0.022164 0.272139 0.563457 0.000000
H131  H     H_    0.675376 0.290708 0.456962 0.000000
H132  H     H_    0.833299 0.334640 0.471677 0.000000
H133  H     H_    0.823793 0.268191 0.490693 0.000000
H134  H     H_    0.679923 0.279054 0.545717 0.000000
H135  H     H_    0.938994 0.344977 0.552485 0.000000
H136  H     H_    0.861807 0.344858 0.606015 0.000000
H137  H     H_    0.761312 0.120844 0.541507 0.000000
H138  H     H_    0.817124 0.106815 0.458784 0.000000
H139  H     H_    0.000177 0.166738 0.429302 0.000000
H140  H     H_    0.102595 0.247742 0.478258 0.000000
C127  C     C_3   0.369165 0.204947 0.482015 0.000000
N43   N     N_3   0.245532 0.194577 0.500820 0.000000
C128  C     C_3   0.281386 0.198698 0.556373 0.000000
C129  C     C_R   0.382870 0.246978 0.571915 0.000000
N44   N     N_R   0.516760 0.246485 0.588193 0.000000
C130  C     C_R   0.565275 0.294136 0.607832 0.000000
C131  C     C_R   0.686297 0.309780 0.638945 0.000000
C132  C     C_R   0.716087 0.359911 0.658105 0.000000
C133  C     C_R   0.620110 0.391136 0.649448 0.000000
C134  C     C_R   0.493149 0.372438 0.621401 0.000000
C135  C     C_R   0.468938 0.323087 0.601302 0.000000
N45   N     N_R   0.350368 0.294045 0.580457 0.000000
H141  H     H_    0.363020 0.178062 0.449654 0.000000
H142  H     H_    0.388836 0.245718 0.469096 0.000000
H143  H     H_    0.448882 0.198955 0.514244 0.000000
H144  H     H_    0.200544 0.156048 0.491738 0.000000
H145  H     H_    0.191349 0.199471 0.572636 0.000000
H146  H     H_    0.322776 0.163977 0.570670 0.000000
H147  H     H_    0.756569 0.283816 0.647916 0.000000
H148  H     H_    0.811271 0.373573 0.682871 0.000000
H149  H     H_    0.644806 0.429494 0.666481 0.000000
H150  H     H_    0.415513 0.395224 0.616626 0.000000
C136  C     C_3   0.546848 0.051626 0.749212 0.000000
N46   N     N_3   0.602210 0.079405 0.797219 0.000000
C137  C     C_3   0.650401 0.043122 0.833509 0.000000
C138  C     C_R   0.700581 0.071619 0.882160 0.000000
N47   N     N_R   0.721695 0.125119 0.885708 0.000000
C139  C     C_R   0.751990 0.133016 0.936998 0.000000
C140  C     C_R   0.784078 0.179654 0.962929 0.000000
C141  C     C_R   0.808330 0.178553 0.016195 0.000000
C142  C     C_R   0.799093 0.131514 0.041989 0.000000
C143  C     C_R   0.767071 0.084816 0.014977 0.000000
C144  C     C_R   0.745498 0.086826 0.962316 0.000000
N48   N     N_R   0.712699 0.046854 0.928515 0.000000
H151  H     H_    0.451464 0.026076 0.753383 0.000000
H152  H     H_    0.525842 0.078831 0.717870 0.000000
H153  H     H_    0.622218 0.031159 0.739037 0.000000
H154  H     H_    0.522182 0.086093 0.812887 0.000000
H155  H     H_    0.563222 0.013967 0.838284 0.000000
H156  H     H_    0.727146 0.024921 0.821201 0.000000
H157  H     H_    0.791844 0.215903 0.942573 0.000000
H158  H     H_    0.834029 0.214574 0.037947 0.000000
H159  H     H_    0.816951 0.131413 0.083548 0.000000
H160  H     H_    0.757581 0.048313 0.034757 0.000000
C145  C     C_3   0.666500 0.331739 0.759355 0.000000
N49   N     N_3   0.721036 0.289357 0.742300 0.000000
C146  C     C_3   0.610260 0.246981 0.724500 0.000000
C147  C     C_R   0.655401 0.196941 0.719627 0.000000
N50   N     N_R   0.670042 0.176030 0.674274 0.000000
C148  C     C_R   0.722259 0.133951 0.690541 0.000000
C149  C     C_R   0.765394 0.100392 0.661770 0.000000
C150  C     C_R   0.827203 0.062299 0.687556 0.000000
C151  C     C_R   0.850196 0.060274 0.741029 0.000000
C152  C     C_R   0.807332 0.095203 0.769225 0.000000
C153  C     C_R   0.738403 0.130051 0.742582 0.000000
N51   N     N_R   0.698005 0.169486 0.762210 0.000000
H161  H     H_    0.748513 0.360272 0.781822 0.000000
H162  H     H_    0.616715 0.351748 0.726765 0.000000
H163  H     H_    0.588492 0.317410 0.781975 0.000000
H164  H     H_    0.778878 0.276631 0.774952 0.000000
H165  H     H_    0.550106 0.240772 0.754530 0.000000
H166  H     H_    0.554424 0.257530 0.687410 0.000000
H167  H     H_    0.752444 0.103682 0.620603 0.000000
H168  H     H_    0.861500 0.034905 0.666031 0.000000
H169  H     H_    0.904229 0.031933 0.760717 0.000000
H170  H     H_    0.833885 0.097387 0.810573 0.000000
C154  C     C_3   0.544861 0.989336 0.068000 0.000000
N52   N     N_3   0.480690 0.935891 0.074080 0.000000
C155  C     C_3   0.544012 0.903114 0.047466 0.000000
C156  C     C_R   0.689676 0.924328 0.055085 0.000000
N53   N     N_R   0.745438 0.956656 0.020133 0.000000
C157  C     C_R   0.864555 0.978947 0.047791 0.000000
C158  C     C_R   0.956235 0.018496 0.033082 0.000000
C159  C     C_R   0.070995 0.036975 0.068821 0.000000
C160  C     C_R   0.089880 0.016526 0.118066 0.000000
C161  C     C_R   0.994375 0.977349 0.132333 0.000000
C162  C     C_R   0.882034 0.959200 0.096067 0.000000
N54   N     N_R   0.774691 0.923100 0.101691 0.000000
H171  H     H_    0.486730 0.015793 0.081380 0.000000
H172  H     H_    0.647934 0.996988 0.091018 0.000000
H173  H     H_    0.548206 0.996561 0.026855 0.000000
H174  H     H_    0.382157 0.932559 0.054366 0.000000
H175  H     H_    0.525418 0.862621 0.061215 0.000000
H176  H     H_    0.499521 0.905300 0.006989 0.000000
H177  H     H_    0.939226 0.034841 0.995061 0.000000
H178  H     H_    0.145655 0.068051 0.058615 0.000000
H179  H     H_    0.178788 0.032096 0.145835 0.000000
H180  H     H_    0.006036 0.963842 0.171365 0.000000
C163  C     C_3   0.421516 0.079847 0.904789 0.000000
N55   N     N_3   0.467809 0.031083 0.905066 0.000000
C164  C     C_3   0.357411 0.992921 0.878162 0.000000
C165  C     C_R   0.381058 0.940021 0.892665 0.000000
N56   N     N_R   0.501329 0.930989 0.919935 0.000000
C166  C     C_R   0.476988 0.879483 0.926172 0.000000
C167  C     C_R   0.562235 0.851084 0.954792 0.000000
C168  C     C_R   0.508720 0.800998 0.966673 0.000000
C169  C     C_R   0.374602 0.780893 0.949584 0.000000
C170  C     C_R   0.292472 0.809448 0.918603 0.000000
C171  C     C_R   0.347168 0.858957 0.906590 0.000000
N57   N     N_R   0.283702 0.895727 0.882736 0.000000
H181  H     H_    0.507507 0.111305 0.919365 0.000000
H182  H     H_    0.375067 0.088588 0.865024 0.000000
H183  H     H_    0.346771 0.076944 0.929939 0.000000
H184  H     H_    0.488551 0.019604 0.943307 0.000000
H185  H     H_    0.264094 0.998309 0.889867 0.000000
H186  H     H_    0.349520 0.997861 0.836127 0.000000
H187  H     H_    0.664630 0.868474 0.970771 0.000000
H188  H     H_    0.569090 0.777972 0.991386 0.000000
H189  H     H_    0.333229 0.743308 0.962474 0.000000
H190  H     H_    0.187562 0.794558 0.909312 0.000000
C172  C     C_3   0.090920 0.851370 0.955746 0.000000
N58   N     N_3   0.031060 0.884237 0.983735 0.000000
C173  C     C_3   0.035976 0.933125 0.957014 0.000000
C174  C     C_R   0.934654 0.927297 0.908524 0.000000
N59   N     N_R   0.964339 0.916076 0.862031 0.000000
C175  C     C_R   0.855551 0.924184 0.828276 0.000000
C176  C     C_R   0.839140 0.930374 0.775955 0.000000
C177  C     C_R   0.729151 0.949717 0.751377 0.000000
C178  C     C_R   0.622994 0.948904 0.776030 0.000000
C179  C     C_R   0.638006 0.938887 0.827394 0.000000
C180  C     C_R   0.762192 0.934634 0.853377 0.000000
N60   N     N_R   0.809334 0.939530 0.904118 0.000000
H191  H     H_    0.071982 0.810993 0.969670 0.000000
H192  H     H_    0.045501 0.851727 0.914556 0.000000
H193  H     H_    0.199975 0.866365 0.961225 0.000000
H194  H     H_    0.093197 0.892156 0.019670 0.000000
H195  H     H_    0.015799 0.962411 0.981892 0.000000
H196  H     H_    0.136888 0.946194 0.948025 0.000000
H197  H     H_    0.912823 0.926214 0.754698 0.000000
H198  H     H_    0.727242 0.964971 0.713011 0.000000
H199  H     H_    0.529673 0.958374 0.757389 0.000000
H200  H     H_    0.553847 0.936008 0.845081 0.000000
C181  C     C_3   0.898778 0.573935 0.000585 0.000000
N61   N     N_3   0.757566 0.556890 0.000495 0.000000
C182  C     C_3   0.701623 0.602305 0.006986 0.000000
C183  C     C_R   0.565468 0.584791 0.018270 0.000000
N62   N     N_R   0.470617 0.552841 0.984166 0.000000
C184  C     C_R   0.377803 0.533891 0.011984 0.000000
C185  C     C_R   0.265759 0.496284 0.997365 0.000000
C186  C     C_R   0.191211 0.478476 0.034454 0.000000
C187  C     C_R   0.231395 0.497838 0.084536 0.000000
C188  C     C_R   0.344543 0.536039 0.097820 0.000000
C189  C     C_R   0.413724 0.554580 0.060128 0.000000
N63   N     N_R   0.529055 0.589507 0.065274 0.000000
H201  H     H_    0.947840 0.539786 0.003543 0.000000
H202  H     H_    0.909569 0.594377 0.964244 0.000000
H203  H     H_    0.946854 0.600094 0.033924 0.000000
H204  H     H_    0.747583 0.532645 0.031804 0.000000
H205  H     H_    0.765944 0.626337 0.038632 0.000000
H206  H     H_    0.695593 0.624923 0.970957 0.000000
H207  H     H_    0.239218 0.479953 0.958863 0.000000
H208  H     H_    0.104372 0.447836 0.025171 0.000000
H209  H     H_    0.176019 0.481875 0.113697 0.000000
H210  H     H_    0.383564 0.547246 0.137186 0.000000
C190  C     C_3   0.084700 0.673428 0.937868 0.000000
N64   N     N_3   0.214984 0.659589 0.942766 0.000000
C191  C     C_3   0.194407 0.604108 0.934592 0.000000
C192  C     C_R   0.205950 0.592237 0.881217 0.000000
N65   N     N_R   0.119809 0.602296 0.837251 0.000000
C193  C     C_R   0.175851 0.586964 0.799843 0.000000
C194  C     C_R   0.132275 0.585318 0.747793 0.000000
C195  C     C_R   0.220634 0.578684 0.717254 0.000000
C196  C     C_R   0.344336 0.567076 0.738806 0.000000
C197  C     C_R   0.376481 0.560438 0.791306 0.000000
C198  C     C_R   0.289712 0.570578 0.820277 0.000000
N66   N     N_R   0.307985 0.570258 0.871336 0.000000
H211  H     H_    0.092047 0.715102 0.928544 0.000000
H212  H     H_    0.013246 0.649607 0.906942 0.000000
H213  H     H_    0.050209 0.666698 0.974887 0.000000
H214  H     H_    0.261598 0.665692 0.981278 0.000000
H215  H     H_    0.274727 0.589808 0.960925 0.000000
H216  H     H_    0.098307 0.585081 0.944261 0.000000
H217  H     H_    0.033070 0.587460 0.730026 0.000000
H218  H     H_    0.191397 0.584364 0.676734 0.000000
H219  H     H_    0.415103 0.563159 0.714881 0.000000
H220  H     H_    0.470002 0.551134 0.810073 0.000000
C199  C     C_3   0.458162 0.658491 0.759907 0.000000
N67   N     N_3   0.550202 0.622920 0.773166 0.000000
C200  C     C_3   0.631068 0.639349 0.823026 0.000000
C201  C     C_R   0.684694 0.595591 0.852665 0.000000
N68   N     N_R   0.620753 0.561360 0.884529 0.000000
C202  C     C_R   0.713269 0.533304 0.904170 0.000000
C203  C     C_R   0.699067 0.492369 0.937121 0.000000
C204  C     C_R   0.807970 0.469039 0.953498 0.000000
C205  C     C_R   0.924076 0.485063 0.934329 0.000000
C206  C     C_R   0.932140 0.524250 0.898333 0.000000
C207  C     C_R   0.827298 0.549941 0.886402 0.000000
N69   N     N_R   0.814994 0.591036 0.855685 0.000000
H221  H     H_    0.411025 0.653741 0.718583 0.000000
H222  H     H_    0.379908 0.650214 0.783665 0.000000
H223  H     H_    0.513525 0.698937 0.767342 0.000000
H224  H     H_    0.613469 0.628631 0.746630 0.000000
H225  H     H_    0.715869 0.667947 0.813730 0.000000
H226  H     H_    0.573089 0.657623 0.845840 0.000000
H227  H     H_    0.608083 0.480073 0.951438 0.000000
H228  H     H_    0.802111 0.437750 0.980760 0.000000
H229  H     H_    0.008068 0.466157 0.947132 0.000000
H230  H     H_    0.016495 0.533099 0.879719 0.000000
C208  C     C_3   0.835154 0.700167 0.445438 0.000000
N70   N     N_3   0.854832 0.657847 0.480628 0.000000
C209  C     C_3   0.986863 0.646191 0.482034 0.000000
C210  C     C_R   0.999506 0.600997 0.516475 0.000000
N71   N     N_R   0.911661 0.588988 0.549697 0.000000
C211  C     C_R   0.901725 0.537703 0.555018 0.000000
C212  C     C_R   0.818761 0.505359 0.581065 0.000000
C213  C     C_R   0.794946 0.453170 0.569385 0.000000
C214  C     C_R   0.852835 0.435498 0.532267 0.000000
C215  C     C_R   0.947822 0.468140 0.510899 0.000000
C216  C     C_R   0.975567 0.519485 0.525176 0.000000
N72   N     N_R   0.049586 0.558660 0.503843 0.000000
H231  H     H_    0.729820 0.705088 0.440157 0.000000
H232  H     H_    0.900557 0.736728 0.461935 0.000000
H233  H     H_    0.855437 0.690979 0.407490 0.000000
H234  H     H_    0.784642 0.625106 0.465837 0.000000
H235  H     H_    0.996283 0.635985 0.442740 0.000000
H236  H     H_    0.063346 0.680364 0.496816 0.000000
H237  H     H_    0.767935 0.520350 0.607069 0.000000
H238  H     H_    0.722435 0.426455 0.585502 0.000000
H239  H     H_    0.817408 0.396648 0.517987 0.000000
H240  H     H_    0.981903 0.454584 0.478914 0.000000
C217  C     C_3   0.521205 0.429628 0.506126 0.000000
N73   N     N_3   0.506827 0.474448 0.534005 0.000000
C218  C     C_3   0.558111 0.520206 0.506906 0.000000
C219  C     C_R   0.514865 0.567047 0.523462 0.000000
N74   N     N_R   0.385468 0.574613 0.508378 0.000000
C220  C     C_R   0.398819 0.625512 0.513959 0.000000
C221  C     C_R   0.299839 0.652338 0.500017 0.000000
C222  C     C_R   0.335836 0.704989 0.495239 0.000000
C223  C     C_R   0.469569 0.728718 0.502412 0.000000
C224  C     C_R   0.568113 0.699418 0.516222 0.000000
C225  C     C_R   0.528447 0.648402 0.528354 0.000000
N75   N     N_R   0.604714 0.612186 0.540147 0.000000
H241  H     H_    0.502467 0.394347 0.529541 0.000000
H242  H     H_    0.448275 0.424940 0.469233 0.000000
H243  H     H_    0.623609 0.435320 0.498002 0.000000
H244  H     H_    0.567919 0.475141 0.570282 0.000000
H245  H     H_    0.668288 0.526840 0.513356 0.000000
H246  H     H_    0.518962 0.513947 0.465079 0.000000
H247  H     H_    0.199127 0.631698 0.488478 0.000000
H248  H     H_    0.259114 0.726845 0.483179 0.000000
H249  H     H_    0.496118 0.769641 0.495000 0.000000
H250  H     H_    0.672130 0.715961 0.517490 0.000000
C226  C     C_3   0.478510 0.710046 0.380842 0.000000
N76   N     N_3   0.358141 0.675831 0.355379 0.000000
C227  C     C_3   0.307476 0.642326 0.394012 0.000000
C228  C     C_R   0.216610 0.596085 0.368886 0.000000
N77   N     N_R   0.168216 0.591480 0.316656 0.000000
C229  C     C_R   0.097738 0.542613 0.311965 0.000000
C230  C     C_R   0.022346 0.518222 0.267941 0.000000
C231  C     C_R   0.951186 0.468489 0.272350 0.000000
C232  C     C_R   0.955477 0.444942 0.320177 0.000000
C233  C     C_R   0.030744 0.470792 0.364328 0.000000
C234  C     C_R   0.101385 0.519766 0.358874 0.000000
N78   N     N_R   0.175694 0.552705 0.396116 0.000000
H251  H     H_    0.564449 0.699796 0.367395 0.000000
H252  H     H_    0.469465 0.750787 0.372439 0.000000
H253  H     H_    0.493479 0.705464 0.422919 0.000000
H254  H     H_    0.386590 0.651970 0.330478 0.000000
H255  H     H_    0.390440 0.628652 0.420306 0.000000
H256  H     H_    0.253018 0.663315 0.415249 0.000000
H257  H     H_    0.019968 0.537136 0.231221 0.000000
H258  H     H_    0.891274 0.447871 0.238381 0.000000
H259  H     H_    0.898863 0.406213 0.322935 0.000000
H260  H     H_    0.033713 0.452960 0.401576 0.000000
C235  C     C_3   0.358849 0.007959 0.655763 0.000000
N79   N     N_3   0.380732 0.029072 0.606513 0.000000
C236  C     C_3   0.514772 0.059826 0.613679 0.000000
C237  C     C_R   0.536242 0.080806 0.563404 0.000000
N80   N     N_R   0.511298 0.049983 0.520465 0.000000
C238  C     C_R   0.521172 0.084668 0.482407 0.000000
C239  C     C_R   0.494082 0.075970 0.430200 0.000000
C240  C     C_R   0.522788 0.117898 0.398805 0.000000
C241  C     C_R   0.578185 0.166941 0.419961 0.000000
C242  C     C_R   0.597008 0.175156 0.472461 0.000000
C243  C     C_R   0.559088 0.133609 0.502340 0.000000
N81   N     N_R   0.567019 0.132795 0.553767 0.000000
H261  H     H_    0.282368 0.972223 0.649077 0.000000
H262  H     H_    0.452231 0.998470 0.678247 0.000000
H263  H     H_    0.323290 0.036356 0.676991 0.000000
H264  H     H_    0.313591 0.053983 0.594990 0.000000
H265  H     H_    0.523819 0.092974 0.639748 0.000000
H266  H     H_    0.588608 0.034968 0.628337 0.000000
H267  H     H_    0.444950 0.038832 0.413545 0.000000
H268  H     H_    0.502857 0.112346 0.357544 0.000000
H269  H     H_    0.603503 0.199111 0.395164 0.000000
H270  H     H_    0.638035 0.213059 0.489351 0.000000
C244  C     C_3   0.523999 0.721060 0.269622 0.000000
N82   N     N_3   0.545291 0.747152 0.222141 0.000000
C245  C     C_3   0.656094 0.731835 0.204957 0.000000
C246  C     C_R   0.660551 0.748975 0.151586 0.000000
N83   N     N_R   0.624413 0.711062 0.114912 0.000000
C247  C     C_R   0.652663 0.735838 0.072737 0.000000
C248  C     C_R   0.668961 0.712416 0.030328 0.000000
C249  C     C_R   0.760207 0.739372 0.003425 0.000000
C250  C     C_R   0.798149 0.792751 0.009269 0.000000
C251  C     C_R   0.760015 0.818043 0.047491 0.000000
C252  C     C_R   0.701521 0.787163 0.082999 0.000000
N84   N     N_R   0.707386 0.797773 0.133258 0.000000
H271  H     H_    0.490038 0.747465 0.293637 0.000000
H272  H     H_    0.441975 0.687052 0.261892 0.000000
H273  H     H_    0.615864 0.708169 0.289458 0.000000
H274  H     H_    0.560707 0.786638 0.227686 0.000000
H275  H     H_    0.752277 0.740298 0.231720 0.000000
H276  H     H_    0.632794 0.689300 0.202081 0.000000
H277  H     H_    0.623888 0.672833 0.023258 0.000000
H278  H     H_    0.812180 0.718111 0.982546 0.000000
H279  H     H_    0.865791 0.813913 0.986604 0.000000
H280  H     H_    0.804753 0.858068 0.055398 0.000000
C253  C     C_3   0.328719 0.507463 0.291608 0.000000
N85   N     N_3   0.338793 0.560669 0.274331 0.000000
C254  C     C_3   0.363630 0.561082 0.222428 0.000000
C255  C     C_R   0.340365 0.610764 0.196595 0.000000
N86   N     N_R   0.227228 0.629219 0.198808 0.000000
C256  C     C_R   0.203130 0.653650 0.153840 0.000000
C257  C     C_R   0.102479 0.680606 0.136807 0.000000
C258  C     C_R   0.101219 0.705011 0.089832 0.000000
C259  C     C_R   0.201521 0.703328 0.062214 0.000000
C260  C     C_R   0.306813 0.678643 0.081990 0.000000
C261  C     C_R   0.304813 0.654409 0.128376 0.000000
N87   N     N_R   0.397945 0.630011 0.155635 0.000000
H281  H     H_    0.393865 0.487872 0.273399 0.000000
H282  H     H_    0.362068 0.507408 0.333887 0.000000
H283  H     H_    0.223708 0.486635 0.280841 0.000000
H284  H     H_    0.423482 0.581886 0.297115 0.000000
H285  H     H_    0.465238 0.553758 0.222347 0.000000
H286  H     H_    0.290024 0.528733 0.201196 0.000000
H287  H     H_    0.033912 0.685839 0.161292 0.000000
H288  H     H_    0.023711 0.726701 0.075191 0.000000
H289  H     H_    0.201205 0.724118 0.026499 0.000000
H290  H     H_    0.388294 0.679058 0.062014 0.000000
C262  C     C_3   0.828420 0.517438 0.147505 0.000000
N88   N     N_3   0.801169 0.560633 0.114579 0.000000
C263  C     C_3   0.893973 0.606922 0.136032 0.000000
C264  C     C_R   0.856054 0.621761 0.183712 0.000000
N89   N     N_R   0.725946 0.621791 0.186889 0.000000
C265  C     C_R   0.731416 0.621260 0.238400 0.000000
C266  C     C_R   0.634129 0.624663 0.265581 0.000000
C267  C     C_R   0.663663 0.621777 0.318785 0.000000
C268  C     C_R   0.786053 0.612183 0.343442 0.000000
C269  C     C_R   0.884372 0.611036 0.315762 0.000000
C270  C     C_R   0.856910 0.620037 0.263816 0.000000
N90   N     N_R   0.940306 0.624387 0.230629 0.000000
H291  H     H_    0.758269 0.481543 0.131870 0.000000
H292  H     H_    0.932264 0.512114 0.148752 0.000000
H293  H     H_    0.813511 0.525137 0.186692 0.000000
H294  H     H_    0.706024 0.565845 0.117421 0.000000
H295  H     H_    0.995717 0.597901 0.145047 0.000000
H296  H     H_    0.887882 0.638748 0.108414 0.000000
H297  H     H_    0.539956 0.630853 0.246641 0.000000
H298  H     H_    0.591501 0.625714 0.341880 0.000000
H299  H     H_    0.804883 0.605912 0.384437 0.000000
H300  H     H_    0.974938 0.599752 0.334739 0.000000
C271  C     C_3   0.410667 0.751642 0.843457 0.000000
N91   N     N_3   0.274189 0.725919 0.843427 0.000000
C272  C     C_3   0.189385 0.757227 0.812313 0.000000
C273  C     C_R   0.064502 0.754776 0.832565 0.000000
N92   N     N_R   0.983873 0.709182 0.843150 0.000000
C274  C     C_R   0.896667 0.726684 0.866867 0.000000
C275  C     C_R   0.803687 0.698847 0.892376 0.000000
C276  C     C_R   0.704695 0.722874 0.902904 0.000000
C277  C     C_R   0.716259 0.775925 0.897455 0.000000
C278  C     C_R   0.825550 0.805021 0.881164 0.000000
C279  C     C_R   0.915123 0.779313 0.865553 0.000000
N93   N     N_R   0.022349 0.798855 0.844766 0.000000
H301  H     H_    0.479497 0.725951 0.860829 0.000000
H302  H     H_    0.423314 0.760221 0.803340 0.000000
H303  H     H_    0.432942 0.788404 0.865917 0.000000
H304  H     H_    0.257887 0.726568 0.880918 0.000000
H305  H     H_    0.242594 0.798173 0.813370 0.000000
H306  H     H_    0.168535 0.742746 0.772643 0.000000
H307  H     H_    0.807266 0.659835 0.904186 0.000000
H308  H     H_    0.626847 0.701206 0.921024 0.000000
H309  H     H_    0.642373 0.795111 0.907866 0.000000
H310  H     H_    0.829722 0.845649 0.877207 0.000000
C280  C     C_3   0.174725 0.750500 0.685757 0.000000
N94   N     N_3   0.040075 0.727316 0.691959 0.000000
C281  C     C_3   0.037318 0.672766 0.701488 0.000000
C282  C     C_R   0.898776 0.643706 0.700920 0.000000
N95   N     N_R   0.867868 0.621464 0.745497 0.000000
C283  C     C_R   0.765206 0.582322 0.728268 0.000000
C284  C     C_R   0.717283 0.539243 0.754570 0.000000
C285  C     C_R   0.621808 0.500618 0.727171 0.000000
C286  C     C_R   0.570793 0.506732 0.675398 0.000000
C287  C     C_R   0.625199 0.549134 0.649269 0.000000
C288  C     C_R   0.728198 0.584295 0.676342 0.000000
N96   N     N_R   0.812722 0.621381 0.657159 0.000000
H311  H     H_    0.201898 0.790453 0.702154 0.000000
H312  H     H_    0.246637 0.726703 0.705354 0.000000
H313  H     H_    0.179665 0.752220 0.644497 0.000000
H314  H     H_    0.976778 0.729887 0.657113 0.000000
H315  H     H_    0.082370 0.655834 0.673164 0.000000
H316  H     H_    0.097897 0.668872 0.740034 0.000000
H317  H     H_    0.760466 0.532174 0.793656 0.000000
H318  H     H_    0.590109 0.464734 0.746035 0.000000
H319  H     H_    0.494464 0.476644 0.654771 0.000000
H320  H     H_    0.593653 0.553132 0.608492 0.000000

loop_
_geom_bond_atom_site_label_1
_geom_bond_atom_site_label_2
_geom_bond_distance
_geom_bond_site_symmetry_2
_ccdc_geom_bond_type
Zn1   N2    1.987 .      S
Zn1   N6    2.015 .      S
Zn1   N54   2.032 .      S
Zn1   N84   2.058 .      S
Zn2   N9    1.993 .      S
Zn2   N57   2.046 .      S
Zn2   N59   2.031 1_455  S
Zn2   N93   2.044 .      S
Zn3   N12   1.961 .      S
Zn3   N71   2.040 .      S
Zn3   N75   2.057 .      S
Zn3   N96   2.030 .      S
Zn4   N14   2.052 .      S
Zn4   N17   2.052 .      S
Zn4   N20   2.036 .      S
Zn4   N80   2.006 1_565  S
Zn5   N8    2.033 1_655  S
Zn5   N11   2.074 .      S
Zn5   N15   1.996 1_655  S
Zn5   N18   1.979 .      S
Zn6   N23   2.074 .      S
Zn6   N77   2.043 .      S
Zn6   N86   1.996 .      S
Zn6   N90   1.990 1_455  S
Zn7   N3    1.970 .      S
Zn7   N5    2.037 .      S
Zn7   N21   2.093 .      S
Zn7   N24   2.037 .      S
Zn8   N27   2.065 .      S
Zn8   N29   2.026 .      S
Zn8   N33   2.013 .      S
Zn8   N35   1.991 .      S
Zn9   N26   1.985 .      S
Zn9   N39   2.035 .      S
Zn9   N42   1.983 .      S
Zn9   N45   1.998 .      S
Zn10  N30   2.028 .      S
Zn10  N32   2.045 .      S
Zn10  N47   2.082 .      S
Zn10  N51   1.999 .      S
Zn11  N48   2.044 1_565  S
Zn11  N53   2.023 1_556  S
Zn11  N56   2.024 .      S
Zn11  N60   2.040 .      S
Zn12  N36   2.035 .      S
Zn12  N62   1.995 .      S
Zn12  N66   1.978 .      S
Zn12  N68   1.989 .      S
Zn13  N38   2.004 .      S
Zn13  N72   2.080 .      S
Zn13  N74   2.020 .      S
Zn13  N78   2.040 .      S
Zn14  N41   2.067 .      S
Zn14  N44   2.016 .      S
Zn14  N50   2.031 .      S
Zn14  N81   2.006 .      S
Zn15  N63   2.059 .      S
Zn15  N83   2.007 .      S
Zn15  N87   2.033 .      S
Zn15  N89   2.042 .      S
Zn16  N65   2.016 1_655  S
Zn16  N69   1.981 .      S
Zn16  N92   2.064 .      S
Zn16  N95   2.022 .      S
C1    N1    1.452 1_565  S
C1    H1    1.108 .      S
C1    H2    1.108 .      S
C1    H3    1.109 1_565  S
N1    C1    1.452 1_545  S
N1    C2    1.454 1_545  S
N1    H4    1.044 .      S
C2    N1    1.454 1_565  S
C2    C3    1.489 .      S
C2    H5    1.110 .      S
C2    H6    1.094 .      S
C5    H7    1.083 .      S
C6    H8    1.082 .      S
C7    H9    1.075 .      S
C8    H10   1.077 .      S
H3    C1    1.109 1_545  S
C10   N4    1.438 .      S
C10   H11   1.101 .      S
C10   H12   1.106 1_455  S
C10   H13   1.099 1_455  S
N4    C11   1.444 .      S
N4    H14   1.031 .      S
C11   C12   1.467 .      S
C11   H15   1.104 1_455  S
C11   H16   1.109 .      S
C14   H17   1.060 .      S
C15   H18   1.079 .      S
C16   H19   1.078 .      S
C17   H20   1.064 1_455  S
H12   C10   1.106 1_655  S
H13   C10   1.099 1_655  S
H15   C11   1.104 1_655  S
H20   C17   1.064 1_655  S
C19   N7    1.457 .      S
C19   H21   1.097 .      S
C19   H22   1.104 .      S
C19   H23   1.103 .      S
N7    C20   1.463 .      S
N7    H24   1.044 .      S
C20   C21   1.471 1_655  S
C20   H25   1.088 1_655  S
C20   H26   1.090 .      S
C21   C20   1.471 1_455  S
N8    Zn5   2.033 1_455  S
C23   H27   1.074 .      S
C24   H28   1.081 .      S
C25   H29   1.080 .      S
C26   H30   1.078 .      S
H25   C20   1.088 1_455  S
C28   N10   1.454 .      S
C28   H31   1.106 .      S
C28   H32   1.104 .      S
C28   H33   1.110 .      S
N10   C29   1.434 .      S
N10   H34   1.043 .      S
C29   C30   1.495 .      S
C29   H35   1.104 .      S
C29   H36   1.109 .      S
C32   H37   1.076 .      S
C33   H38   1.072 .      S
C34   H39   1.081 .      S
C35   H40   1.068 .      S
C37   N13   1.447 .      S
C37   H41   1.109 .      S
C37   H42   1.102 .      S
C37   H43   1.056 .      S
N13   C38   1.460 .      S
N13   H44   1.040 .      S
C38   C39   1.502 .      S
C38   H45   1.109 .      S
C38   H46   1.079 .      S
C41   H47   1.078 .      S
C42   H48   1.080 .      S
C43   H49   1.072 1_455  S
C44   H50   1.069 .      S
N15   Zn5   1.996 1_455  S
H49   C43   1.072 1_655  S
C46   N16   1.450 .      S
C46   H51   1.107 .      S
C46   H52   1.108 .      S
C46   H53   1.109 .      S
N16   C47   1.449 .      S
N16   H54   1.044 .      S
C47   C48   1.481 .      S
C47   H55   1.105 .      S
C47   H56   1.099 .      S
C50   H57   1.078 .      S
C51   H58   1.072 .      S
C52   H59   1.081 .      S
C53   H60   1.062 .      S
C55   N19   1.453 .      S
C55   H61   1.105 .      S
C55   H62   1.108 .      S
C55   H63   1.105 .      S
N19   C56   1.435 .      S
N19   H64   1.042 .      S
C56   C57   1.484 .      S
C56   H65   1.081 .      S
C56   H66   1.109 .      S
C59   H67   1.082 .      S
C60   H68   1.079 .      S
C61   H69   1.081 .      S
C62   H70   1.072 .      S
C64   N22   1.453 .      S
C64   H71   1.102 .      S
C64   H72   1.103 .      S
C64   H73   1.107 .      S
N22   C65   1.437 .      S
N22   H74   1.028 .      S
C65   C66   1.470 .      S
C65   H75   1.085 .      S
C65   H76   1.109 .      S
C68   H77   1.063 .      S
C69   H78   1.067 .      S
C70   H79   1.077 .      S
C71   H80   1.075 .      S
C73   N25   1.454 .      S
C73   H81   1.106 .      S
C73   H82   1.091 .      S
C73   H83   1.075 .      S
N25   C74   1.466 .      S
N25   H84   1.044 .      S
C74   C75   1.469 .      S
C74   H85   1.091 .      S
C74   H86   1.096 .      S
C77   H87   1.072 .      S
C78   H88   1.080 .      S
C79   H89   1.081 1_455  S
C80   H90   1.061 .      S
H89   C79   1.081 1_655  S
C82   N28   1.462 .      S
C82   H91   1.088 .      S
C82   H92   1.107 1_655  S
C82   H93   1.110 .      S
N28   C83   1.458 1_655  S
N28   H94   1.040 .      S
C83   N28   1.458 1_455  S
C83   C84   1.461 1_455  S
C83   H95   1.106 1_455  S
C83   H96   1.095 .      S
C84   C83   1.461 1_655  S
C86   H97   1.070 .      S
C87   H98   1.076 .      S
C88   H99   1.081 .      S
C89   H100  1.050 .      S
H92   C82   1.107 1_455  S
H95   C83   1.106 1_655  S
C91   N31   1.451 .      S
C91   H101  1.109 .      S
C91   H102  1.109 .      S
C91   H103  1.109 .      S
N31   C92   1.450 .      S
N31   H104  1.044 .      S
C92   C93   1.498 .      S
C92   H105  1.110 .      S
C92   H106  1.107 .      S
C95   H107  1.047 .      S
C96   H108  1.073 .      S
C97   H109  1.082 .      S
C98   H110  1.057 .      S
C100  N34   1.449 .      S
C100  H111  1.105 .      S
C100  H112  1.108 .      S
C100  H113  1.103 .      S
N34   C101  1.438 .      S
N34   H114  1.044 .      S
C101  C102  1.469 .      S
C101  H115  1.101 .      S
C101  H116  1.104 .      S
C104  H117  1.080 .      S
C105  H118  1.081 1_556  S
C106  H119  1.081 .      S
C107  H120  1.074 1_556  S
H118  C105  1.081 1_554  S
H120  C107  1.074 1_554  S
C109  N37   1.438 .      S
C109  H121  1.109 .      S
C109  H122  1.107 .      S
C109  H123  1.109 .      S
N37   C110  1.446 .      S
N37   H124  1.036 .      S
C110  C111  1.475 .      S
C110  H125  1.103 .      S
C110  H126  1.103 .      S
C113  H127  1.078 .      S
C114  H128  1.081 .      S
C115  H129  1.081 .      S
C116  H130  1.078 .      S
C118  N40   1.457 .      S
C118  H131  1.109 .      S
C118  H132  1.107 .      S
C118  H133  1.109 .      S
N40   C119  1.452 .      S
N40   H134  1.038 .      S
C119  C120  1.472 .      S
C119  H135  1.105 .      S
C119  H136  1.097 .      S
C122  H137  1.065 .      S
C123  H138  1.076 .      S
C124  H139  1.081 1_655  S
C125  H140  1.075 .      S
H139  C124  1.081 1_455  S
C127  N43   1.443 .      S
C127  H141  1.109 .      S
C127  H142  1.109 .      S
C127  H143  1.100 .      S
N43   C128  1.448 .      S
N43   H144  1.042 .      S
C128  C129  1.494 .      S
C128  H145  1.108 .      S
C128  H146  1.109 .      S
C131  H147  1.082 .      S
C132  H148  1.078 .      S
C133  H149  1.078 .      S
C134  H150  1.080 .      S
C136  N46   1.443 .      S
C136  H151  1.109 .      S
C136  H152  1.099 .      S
C136  H153  1.107 .      S
N46   C137  1.426 .      S
N46   H154  1.044 .      S
C137  C138  1.460 .      S
C137  H155  1.094 .      S
C137  H156  1.107 .      S
C140  H157  1.079 .      S
C141  H158  1.081 .      S
C142  H159  1.081 .      S
C143  H160  1.078 .      S
N48   Zn11  2.044 1_545  S
C145  N49   1.460 .      S
C145  H161  1.106 .      S
C145  H162  1.094 .      S
C145  H163  1.104 .      S
N49   C146  1.452 .      S
N49   H164  1.040 .      S
C146  C147  1.494 .      S
C146  H165  1.095 .      S
C146  H166  1.098 .      S
C149  H167  1.077 .      S
C150  H168  1.081 .      S
C151  H169  1.081 .      S
C152  H170  1.077 .      S
C154  N52   1.453 .      S
C154  H171  1.109 1_565  S
C154  H172  1.109 .      S
C154  H173  1.108 .      S
N52   C155  1.449 .      S
N52   H174  1.044 .      S
C155  C156  1.486 .      S
C155  H175  1.109 .      S
C155  H176  1.087 .      S
N53   Zn11  2.023 1_554  S
C158  H177  1.081 1_554  S
C159  H178  1.081 .      S
C160  H179  1.081 .      S
C161  H180  1.077 1_655  S
H171  C154  1.109 1_545  S
H177  C158  1.081 1_556  S
H180  C161  1.077 1_455  S
C163  N55   1.451 .      S
C163  H181  1.108 .      S
C163  H182  1.109 .      S
C163  H183  1.109 .      S
N55   C164  1.451 1_545  S
N55   H184  1.044 .      S
C164  N55   1.451 1_565  S
C164  C165  1.485 .      S
C164  H185  1.109 .      S
C164  H186  1.107 .      S
C167  H187  1.081 .      S
C168  H188  1.074 .      S
C169  H189  1.074 .      S
C170  H190  1.067 .      S
C172  N58   1.449 .      S
C172  H191  1.108 .      S
C172  H192  1.103 .      S
C172  H193  1.108 .      S
N58   C173  1.447 .      S
N58   H194  1.043 1_556  S
C173  C174  1.485 1_455  S
C173  H195  1.100 .      S
C173  H196  1.109 .      S
C174  C173  1.485 1_655  S
N59   Zn2   2.031 1_655  S
C176  H197  1.058 .      S
C177  H198  1.081 .      S
C178  H199  1.071 .      S
C179  H200  1.060 .      S
H194  N58   1.043 1_554  S
C181  N61   1.450 .      S
C181  H201  1.107 .      S
C181  H202  1.105 1_554  S
C181  H203  1.109 .      S
N61   C182  1.451 .      S
N61   H204  1.042 .      S
C182  C183  1.487 .      S
C182  H205  1.093 .      S
C182  H206  1.110 1_554  S
C185  H207  1.081 .      S
C186  H208  1.080 .      S
C187  H209  1.081 .      S
C188  H210  1.070 .      S
H202  C181  1.105 1_556  S
H206  C182  1.110 1_556  S
C190  N64   1.449 .      S
C190  H211  1.107 .      S
C190  H212  1.107 .      S
C190  H213  1.107 .      S
N64   C191  1.446 .      S
N64   H214  1.043 .      S
C191  C192  1.488 .      S
C191  H215  1.098 .      S
C191  H216  1.102 .      S
N65   Zn16  2.016 1_455  S
C194  H217  1.059 .      S
C195  H218  1.073 .      S
C196  H219  1.081 .      S
C197  H220  1.072 .      S
C199  N67   1.451 .      S
C199  H221  1.109 .      S
C199  H222  1.109 .      S
C199  H223  1.109 .      S
N67   C200  1.448 .      S
N67   H224  1.042 .      S
C200  C201  1.509 .      S
C200  H225  1.106 .      S
C200  H226  1.107 .      S
C203  H227  1.077 .      S
C204  H228  1.081 .      S
C205  H229  1.080 1_655  S
C206  H230  1.073 1_655  S
H229  C205  1.080 1_455  S
H230  C206  1.073 1_455  S
C208  N70   1.452 .      S
C208  H231  1.109 .      S
C208  H232  1.109 .      S
C208  H233  1.108 .      S
N70   C209  1.456 .      S
N70   H234  1.044 .      S
C209  C210  1.489 .      S
C209  H235  1.109 .      S
C209  H236  1.101 1_655  S
C212  H237  1.070 .      S
C213  H238  1.072 .      S
C214  H239  1.068 .      S
C215  H240  1.073 .      S
H236  C209  1.101 1_455  S
C217  N73   1.451 .      S
C217  H241  1.109 .      S
C217  H242  1.108 .      S
C217  H243  1.108 .      S
N73   C218  1.450 .      S
N73   H244  1.043 .      S
C218  C219  1.491 .      S
C218  H245  1.105 .      S
C218  H246  1.109 .      S
C221  H247  1.072 .      S
C222  H248  1.065 .      S
C223  H249  1.080 .      S
C224  H250  1.079 .      S
C226  N76   1.449 .      S
C226  H251  1.104 .      S
C226  H252  1.105 .      S
C226  H253  1.102 .      S
N76   C227  1.444 .      S
N76   H254  1.041 .      S
C227  C228  1.471 .      S
C227  H255  1.109 .      S
C227  H256  1.095 .      S
C230  H257  1.080 .      S
C231  H258  1.081 .      S
C232  H259  1.081 .      S
C233  H260  1.080 .      S
C235  N79   1.447 .      S
C235  H261  1.100 1_545  S
C235  H262  1.104 1_545  S
C235  H263  1.103 .      S
N79   C236  1.450 .      S
N79   H264  1.044 .      S
C236  C237  1.470 .      S
C236  H265  1.103 .      S
C236  H266  1.109 .      S
N80   Zn4   2.006 1_545  S
C239  H267  1.072 .      S
C240  H268  1.081 .      S
C241  H269  1.081 .      S
C242  H270  1.076 .      S
H261  C235  1.100 1_565  S
H262  C235  1.104 1_565  S
C244  N82   1.452 .      S
C244  H271  1.102 .      S
C244  H272  1.102 .      S
C244  H273  1.106 .      S
N82   C245  1.445 .      S
N82   H274  1.028 .      S
C245  C246  1.480 .      S
C245  H275  1.095 .      S
C245  H276  1.098 .      S
C248  H277  1.060 .      S
C249  H278  1.076 1_554  S
C250  H279  1.078 1_554  S
C251  H280  1.072 .      S
H278  C249  1.076 1_556  S
H279  C250  1.078 1_556  S
C253  N85   1.450 .      S
C253  H281  1.109 .      S
C253  H282  1.107 .      S
C253  H283  1.109 .      S
N85   C254  1.448 .      S
N85   H284  1.035 .      S
C254  C255  1.497 .      S
C254  H285  1.110 .      S
C254  H286  1.109 .      S
C257  H287  1.082 .      S
C258  H288  1.080 .      S
C259  H289  1.081 .      S
C260  H290  1.081 .      S
C262  N88   1.451 .      S
C262  H291  1.109 .      S
C262  H292  1.109 .      S
C262  H293  1.109 .      S
N88   C263  1.450 .      S
N88   H294  1.041 .      S
C263  C264  1.477 .      S
C263  H295  1.108 .      S
C263  H296  1.100 .      S
C266  H297  1.050 .      S
C267  H298  1.077 .      S
C268  H299  1.080 .      S
C269  H300  1.069 .      S
N90   Zn6   1.990 1_655  S
C271  N91   1.449 .      S
C271  H301  1.105 .      S
C271  H302  1.109 .      S
C271  H303  1.109 .      S
N91   C272  1.447 .      S
N91   H304  1.041 .      S
C272  C273  1.488 .      S
C272  H305  1.109 .      S
C272  H306  1.094 .      S
C275  H307  1.069 .      S
C276  H308  1.082 .      S
C277  H309  1.076 .      S
C278  H310  1.062 .      S
C280  N94   1.454 .      S
C280  H311  1.109 .      S
C280  H312  1.109 .      S
C280  H313  1.104 .      S
N94   C281  1.444 .      S
N94   H314  1.034 1_455  S
C281  C282  1.492 1_455  S
C281  H315  1.102 .      S
C281  H316  1.105 .      S
C282  C281  1.492 1_655  S
C284  H317  1.073 .      S
C285  H318  1.080 .      S
C286  H319  1.079 .      S
C287  H320  1.075 .      S
H314  N94   1.034 1_655  S
C3    N2    1.370 .      A
C3    N3    1.369 .      A
N2    C4    1.334 .      A
C4    C5    1.355 .      A
C4    C9    1.346 .      A
C5    C6    1.395 .      A
C6    C7    1.386 .      A
C7    C8    1.380 .      A
C8    C9    1.365 .      A
C9    N3    1.334 .      A
C12   N5    1.372 .      A
C12   N6    1.371 1_455  A
N5    C13   1.351 .      A
C13   C14   1.377 .      A
C13   C18   1.353 .      A
C14   C15   1.381 .      A
C15   C16   1.382 .      A
C16   C17   1.376 .      A
C17   C18   1.359 .      A
C18   N6    1.337 1_455  A
N6    C12   1.371 1_655  A
N6    C18   1.337 1_655  A
C21   N8    1.374 .      A
C21   N9    1.366 .      A
N8    C22   1.346 .      A
C22   C23   1.369 .      A
C22   C27   1.363 .      A
C23   C24   1.382 1_565  A
C24   C23   1.382 1_545  A
C24   C25   1.391 .      A
C25   C26   1.384 1_545  A
C26   C25   1.384 1_565  A
C26   C27   1.372 .      A
C27   N9    1.343 .      A
C30   N11   1.386 .      A
C30   N12   1.372 .      A
N11   C31   1.360 1_655  A
C31   N11   1.360 1_455  A
C31   C32   1.371 .      A
C31   C36   1.351 1_455  A
C32   C33   1.399 .      A
C33   C34   1.377 .      A
C34   C35   1.367 .      A
C35   C36   1.372 1_455  A
C36   C31   1.351 1_655  A
C36   C35   1.372 1_655  A
C36   N12   1.328 .      A
C39   N14   1.393 .      A
C39   N15   1.359 .      A
N14   C40   1.341 .      A
C40   C41   1.372 1_565  A
C40   C45   1.353 .      A
C41   C40   1.372 1_545  A
C41   C42   1.380 .      A
C42   C43   1.387 .      A
C43   C44   1.379 1_445  A
C44   C43   1.379 1_665  A
C44   C45   1.370 1_655  A
C45   C44   1.370 1_455  A
C45   N15   1.344 .      A
C48   N17   1.377 .      A
C48   N18   1.368 .      A
N17   C49   1.348 .      A
C49   C50   1.363 .      A
C49   C54   1.349 .      A
C50   C51   1.400 .      A
C51   C52   1.384 .      A
C52   C53   1.372 .      A
C53   C54   1.357 .      A
C54   N18   1.328 .      A
C57   N20   1.374 .      A
C57   N21   1.391 .      A
N20   C58   1.344 .      A
C58   C59   1.372 1_565  A
C58   C63   1.361 .      A
C59   C58   1.372 1_545  A
C59   C60   1.386 .      A
C60   C61   1.386 .      A
C61   C62   1.382 1_545  A
C62   C61   1.382 1_565  A
C62   C63   1.375 .      A
C63   N21   1.349 .      A
C66   N23   1.381 .      A
C66   N24   1.373 .      A
N23   C67   1.343 .      A
C67   C68   1.357 .      A
C67   C72   1.358 .      A
C68   C69   1.376 .      A
C69   C70   1.385 .      A
C70   C71   1.374 .      A
C71   C72   1.359 .      A
C72   N24   1.330 .      A
C75   N26   1.362 .      A
C75   N27   1.381 .      A
N26   C76   1.336 .      A
C76   C77   1.367 .      A
C76   C81   1.360 .      A
C77   C78   1.383 1_455  A
C78   C77   1.383 1_655  A
C78   C79   1.389 1_655  A
C79   C78   1.389 1_455  A
C79   C80   1.385 .      A
C80   C81   1.367 .      A
C81   N27   1.352 .      A
C84   N29   1.371 1_655  A
C84   N30   1.366 .      A
N29   C84   1.371 1_455  A
N29   C85   1.347 .      A
C85   C86   1.374 .      A
C85   C90   1.359 1_455  A
C86   C87   1.376 1_455  A
C87   C86   1.376 1_655  A
C87   C88   1.382 .      A
C88   C89   1.381 .      A
C89   C90   1.362 .      A
C90   C85   1.359 1_655  A
C90   N30   1.347 .      A
C93   N32   1.381 .      A
C93   N33   1.374 .      A
N32   C94   1.350 .      A
C94   C95   1.366 .      A
C94   C99   1.342 .      A
C95   C96   1.382 .      A
C96   C97   1.382 .      A
C97   C98   1.378 .      A
C98   C99   1.357 .      A
C99   N33   1.336 .      A
C102  N35   1.369 .      A
C102  N36   1.373 .      A
N35   C103  1.341 .      A
C103  C104  1.370 .      A
C103  C108  1.361 .      A
C104  C105  1.384 .      A
C105  C106  1.391 1_556  A
C106  C105  1.391 1_554  A
C106  C107  1.387 1_554  A
C107  C106  1.387 1_556  A
C107  C108  1.374 .      A
C108  N36   1.350 .      A
C111  N38   1.368 .      A
C111  N39   1.378 .      A
N38   C112  1.340 .      A
C112  C113  1.370 .      A
C112  C117  1.361 .      A
C113  C114  1.385 .      A
C114  C115  1.392 .      A
C115  C116  1.386 .      A
C116  C117  1.370 .      A
C117  N39   1.348 .      A
C120  N41   1.383 .      A
C120  N42   1.358 1_655  A
N41   C121  1.358 .      A
C121  C122  1.372 .      A
C121  C126  1.357 .      A
C122  C123  1.379 .      A
C123  C124  1.385 .      A
C124  C125  1.380 1_655  A
C125  C124  1.380 1_455  A
C125  C126  1.369 1_455  A
C126  C125  1.369 1_655  A
C126  N42   1.331 1_655  A
N42   C120  1.358 1_455  A
N42   C126  1.331 1_455  A
C129  N44   1.377 .      A
C129  N45   1.377 .      A
N44   C130  1.334 .      A
C130  C131  1.359 .      A
C130  C135  1.352 .      A
C131  C132  1.379 .      A
C132  C133  1.391 .      A
C133  C134  1.387 .      A
C134  C135  1.372 .      A
C135  N45   1.342 .      A
C138  N47   1.382 .      A
C138  N48   1.371 .      A
N47   C139  1.346 .      A
C139  C140  1.371 .      A
C139  C144  1.368 .      A
C140  C141  1.386 1_556  A
C141  C140  1.386 1_554  A
C141  C142  1.392 .      A
C142  C143  1.386 .      A
C143  C144  1.371 1_554  A
C144  C143  1.371 1_556  A
C144  N48   1.346 .      A
C147  N50   1.381 .      A
C147  N51   1.370 .      A
N50   C148  1.348 .      A
C148  C149  1.370 .      A
C148  C153  1.360 .      A
C149  C150  1.386 .      A
C150  C151  1.392 .      A
C151  C152  1.385 .      A
C152  C153  1.368 .      A
C153  N51   1.341 .      A
C156  N53   1.377 .      A
C156  N54   1.376 .      A
N53   C157  1.343 .      A
C157  C158  1.372 1_565  A
C157  C162  1.361 .      A
C158  C157  1.372 1_545  A
C158  C159  1.385 1_655  A
C159  C158  1.385 1_455  A
C159  C160  1.391 .      A
C160  C161  1.386 1_445  A
C161  C160  1.386 1_665  A
C161  C162  1.374 .      A
C162  N54   1.348 .      A
C165  N56   1.377 .      A
C165  N57   1.380 .      A
N56   C166  1.339 .      A
C166  C167  1.371 .      A
C166  C171  1.358 .      A
C167  C168  1.380 .      A
C168  C169  1.383 .      A
C169  C170  1.381 .      A
C170  C171  1.371 .      A
C171  N57   1.348 .      A
C174  N59   1.379 .      A
C174  N60   1.383 .      A
N59   C175  1.347 .      A
C175  C176  1.373 .      A
C175  C180  1.350 .      A
C176  C177  1.381 .      A
C177  C178  1.384 .      A
C178  C179  1.365 .      A
C179  C180  1.363 .      A
C180  N60   1.339 .      A
C183  N62   1.366 1_554  A
C183  N63   1.386 .      A
N62   C183  1.366 1_556  A
N62   C184  1.340 1_556  A
C184  N62   1.340 1_554  A
C184  C185  1.372 1_554  A
C184  C189  1.354 .      A
C185  C184  1.372 1_556  A
C185  C186  1.385 1_556  A
C186  C185  1.385 1_554  A
C186  C187  1.390 .      A
C187  C188  1.385 .      A
C188  C189  1.368 .      A
C189  N63   1.348 .      A
C192  N65   1.378 .      A
C192  N66   1.370 .      A
N65   C193  1.349 .      A
C193  C194  1.365 .      A
C193  C198  1.347 .      A
C194  C195  1.374 .      A
C195  C196  1.389 .      A
C196  C197  1.381 .      A
C197  C198  1.359 .      A
C198  N66   1.330 .      A
C201  N68   1.383 .      A
C201  N69   1.369 .      A
N68   C202  1.340 .      A
C202  C203  1.372 .      A
C202  C207  1.351 .      A
C203  C204  1.381 .      A
C204  C205  1.387 .      A
C205  C206  1.387 .      A
C206  C207  1.371 .      A
C207  N69   1.346 .      A
C210  N71   1.377 .      A
C210  N72   1.388 1_655  A
N71   C211  1.336 .      A
C211  C212  1.365 .      A
C211  C216  1.356 .      A
C212  C213  1.377 .      A
C213  C214  1.380 .      A
C214  C215  1.378 .      A
C215  C216  1.370 .      A
C216  N72   1.344 1_655  A
N72   C210  1.388 1_455  A
N72   C216  1.344 1_455  A
C219  N74   1.378 .      A
C219  N75   1.383 .      A
N74   C220  1.326 .      A
C220  C221  1.345 .      A
C220  C225  1.350 .      A
C221  C222  1.370 .      A
C222  C223  1.388 .      A
C223  C224  1.385 .      A
C224  C225  1.373 .      A
C225  N75   1.345 .      A
C228  N77   1.378 .      A
C228  N78   1.375 .      A
N77   C229  1.345 .      A
C229  C230  1.369 .      A
C229  C234  1.364 .      A
C230  C231  1.386 1_455  A
C231  C230  1.386 1_655  A
C231  C232  1.393 .      A
C232  C233  1.386 1_655  A
C233  C232  1.386 1_455  A
C233  C234  1.372 .      A
C234  N78   1.345 .      A
C237  N80   1.367 .      A
C237  N81   1.370 .      A
N80   C238  1.347 .      A
C238  C239  1.373 .      A
C238  C243  1.358 .      A
C239  C240  1.385 .      A
C240  C241  1.389 .      A
C241  C242  1.384 .      A
C242  C243  1.373 .      A
C243  N81   1.349 .      A
C246  N83   1.356 .      A
C246  N84   1.391 .      A
N83   C247  1.333 .      A
C247  C248  1.349 .      A
C247  C252  1.360 .      A
C248  C249  1.374 .      A
C249  C250  1.385 .      A
C250  C251  1.384 .      A
C251  C252  1.381 .      A
C252  N84   1.355 .      A
C255  N86   1.367 .      A
C255  N87   1.379 .      A
N86   C256  1.342 .      A
C256  C257  1.372 .      A
C256  C261  1.357 .      A
C257  C258  1.385 .      A
C258  C259  1.393 .      A
C259  C260  1.387 .      A
C260  C261  1.372 .      A
C261  N87   1.346 .      A
C264  N89   1.371 .      A
C264  N90   1.370 .      A
N89   C265  1.355 .      A
C265  C266  1.368 .      A
C265  C270  1.353 .      A
C266  C267  1.387 .      A
C267  C268  1.379 .      A
C268  C269  1.374 .      A
C269  C270  1.375 .      A
C270  N90   1.339 .      A
C273  N92   1.380 1_455  A
C273  N93   1.380 .      A
N92   C273  1.380 1_655  A
N92   C274  1.351 .      A
C274  C275  1.372 .      A
C274  C279  1.358 .      A
C275  C276  1.380 .      A
C276  C277  1.381 .      A
C277  C278  1.379 .      A
C278  C279  1.378 .      A
C279  N93   1.347 1_655  A
N93   C279  1.347 1_455  A
C282  N95   1.372 .      A
C282  N96   1.385 .      A
N95   C283  1.348 .      A
C283  C284  1.376 .      A
C283  C288  1.358 .      A
C284  C285  1.382 .      A
C285  C286  1.389 .      A
C286  C287  1.382 .      A
C287  C288  1.367 .      A
C288  N96   1.341 .      A
