data_str_m1_o12435_MEI
_audit_creation_date              2015-10-01T06:33:44-0700
_symmetry_space_group_name_H-M    P1
_symmetry_Int_Tables_number       1
_space_group_crystal_system       triclinic
loop_
_symmetry_equiv_pos_as_xyz
  x,y,z
_cell_length_a                    27.2701329
_cell_length_b                    25.6271247
_cell_length_c                    30.8267017
_cell_angle_alpha                 94.9214597
_cell_angle_beta                  89.2734960
_cell_angle_gamma                 117.065188
_cell_volume                      19105.0050733

loop_
_atom_site_label
_atom_site_type_symbol
_atom_site_description
_atom_site_fract_x
_atom_site_fract_y
_atom_site_fract_z
_atom_type_partial_charge
Zn1   Zn    Zn3+2 0.208473 0.623253 0.913505 0.000000
Zn2   Zn    Zn3+2 0.986694 0.185996 0.897728 0.000000
Zn3   Zn    Zn3+2 0.993686 0.397719 0.696628 0.000000
Zn4   Zn    Zn3+2 0.789361 0.415103 0.272881 0.000000
Zn5   Zn    Zn3+2 0.814952 0.228659 0.802492 0.000000
Zn6   Zn    Zn3+2 0.802393 0.223306 0.375655 0.000000
Zn7   Zn    Zn3+2 0.783520 0.427912 0.909442 0.000000
Zn8   Zn    Zn3+2 0.647633 0.753974 0.983179 0.000000
Zn9   Zn    Zn3+2 0.636889 0.729004 0.191701 0.000000
Zn10  Zn    Zn3+2 0.209737 0.620428 0.285047 0.000000
Zn11  Zn    Zn3+2 0.523804 0.594095 0.589151 0.000000
Zn12  Zn    Zn3+2 0.640697 0.852260 0.598478 0.000000
Zn13  Zn    Zn3+2 0.769712 0.720996 0.597865 0.000000
Zn14  Zn    Zn3+2 0.431745 0.511755 0.395998 0.000000
Zn15  Zn    Zn3+2 0.432608 0.524771 0.774085 0.000000
Zn16  Zn    Zn3+2 0.847695 0.711727 0.411842 0.000000
Zn17  Zn    Zn3+2 0.858854 0.716083 0.779633 0.000000
Zn18  Zn    Zn3+2 0.666443 0.967112 0.422344 0.000000
Zn19  Zn    Zn3+2 0.659110 0.954860 0.789042 0.000000
Zn20  Zn    Zn3+2 0.464894 0.752185 0.877060 0.000000
Zn21  Zn    Zn3+2 0.650473 0.550954 0.857316 0.000000
Zn22  Zn    Zn3+2 0.649834 0.546158 0.304527 0.000000
Zn23  Zn    Zn3+2 0.173256 0.395975 0.806950 0.000000
Zn24  Zn    Zn3+2 0.171397 0.395600 0.363743 0.000000
Zn25  Zn    Zn3+2 0.466859 0.743293 0.324028 0.000000
Zn26  Zn    Zn3+2 0.834871 0.917846 0.878443 0.000000
Zn27  Zn    Zn3+2 0.992460 0.594730 0.831721 0.000000
Zn28  Zn    Zn3+2 0.821138 0.904880 0.311380 0.000000
Zn29  Zn    Zn3+2 0.992928 0.588700 0.373875 0.000000
Zn30  Zn    Zn3+2 0.995733 0.407483 0.487911 0.000000
Zn31  Zn    Zn3+2 0.967221 0.168958 0.274999 0.000000
Zn32  Zn    Zn3+2 0.993820 0.267259 0.094095 0.000000
Zn33  Zn    Zn3+2 0.113689 0.526889 0.096294 0.000000
Zn34  Zn    Zn3+2 0.870841 0.398922 0.085468 0.000000
Br1   Br    Br    0.277324 0.442248 0.047547 0.000000
C1    C     C_R   0.254892 0.494844 0.024272 0.000000
C2    C     C_R   0.276097 0.518506 0.985417 0.000000
C3    C     C_R   0.259181 0.555704 0.967854 0.000000
C4    C     C_R   0.222321 0.569436 0.990447 0.000000
N1    N     N_R   0.198521 0.601482 0.977552 0.000000
C5    C     C_R   0.160842 0.595265 0.009857 0.000000
N2    N     N_R   0.160324 0.559583 0.041358 0.000000
C6    C     C_R   0.200241 0.545054 0.027975 0.000000
C7    C     C_R   0.216151 0.507595 0.045568 0.000000
H1    H     H_    0.305263 0.507047 0.968435 0.000000
H2    H     H_    0.273687 0.572249 0.936912 0.000000
H3    H     H_    0.131064 0.612070 0.008413 0.000000
H4    H     H_    0.198723 0.487654 0.074536 0.000000
Br2   Br    Br    0.215366 0.249109 0.965370 0.000000
C8    C     C_R   0.150038 0.248016 0.988586 0.000000
C9    C     C_R   0.148011 0.260422 0.033068 0.000000
C10   C     C_R   0.100825 0.259073 0.050862 0.000000
C11   C     C_R   0.056407 0.243980 0.023448 0.000000
N3    N     N_R   0.006868 0.239369 0.034225 0.000000
C12   C     C_R   0.977807 0.221422 0.995162 0.000000
N4    N     N_R   0.007883 0.214616 0.961028 0.000000
C13   C     C_R   0.057444 0.230001 0.980080 0.000000
C14   C     C_R   0.104771 0.233582 0.961392 0.000000
H5    H     H_    0.183491 0.271083 0.053899 0.000000
H6    H     H_    0.098376 0.267207 0.085340 0.000000
H7    H     H_    0.936095 0.214841 0.991378 0.000000
H8    H     H_    0.107668 0.226557 0.926862 0.000000
Br3   Br    Br    0.159557 0.637009 0.662665 0.000000
C15   C     C_R   0.107492 0.570096 0.627576 0.000000
C16   C     C_R   0.108472 0.569872 0.582426 0.000000
C17   C     C_R   0.072297 0.520965 0.556222 0.000000
C18   C     C_R   0.034970 0.473683 0.576400 0.000000
N5    N     N_R   0.999419 0.420623 0.557224 0.000000
C19   C     C_R   0.975625 0.389781 0.593218 0.000000
N6    N     N_R   0.996903 0.421369 0.632919 0.000000
C20   C     C_R   0.033147 0.474362 0.620838 0.000000
C21   C     C_R   0.069978 0.521579 0.647262 0.000000
H9    H     H_    0.138717 0.607706 0.567647 0.000000
H10   H     H_    0.074363 0.519758 0.521165 0.000000
H11   H     H_    0.944287 0.344831 0.591421 0.000000
H12   H     H_    0.070921 0.520418 0.682117 0.000000
Br4   Br    Br    0.661119 0.165930 0.209681 0.000000
C22   C     C_R   0.723879 0.230971 0.190332 0.000000
C23   C     C_R   0.746412 0.225624 0.150957 0.000000
C24   C     C_R   0.785870 0.275105 0.133897 0.000000
C25   C     C_R   0.802613 0.329175 0.156675 0.000000
N7    N     N_R   0.834329 0.383434 0.143780 0.000000
C26   C     C_R   0.835186 0.419853 0.179471 0.000000
N8    N     N_R   0.804178 0.389766 0.212852 0.000000
C27   C     C_R   0.783898 0.333209 0.196925 0.000000
C28   C     C_R   0.743399 0.284977 0.213784 0.000000
H13   H     H_    0.730209 0.183498 0.131978 0.000000
H14   H     H_    0.797568 0.271015 0.101633 0.000000
H15   H     H_    0.857991 0.467257 0.181154 0.000000
H16   H     H_    0.722626 0.289426 0.241788 0.000000
Br5   Br    Br    0.756266 0.036823 0.957112 0.000000
C29   C     C_R   0.795204 0.111667 0.936052 0.000000
C30   C     C_R   0.763642 0.135186 0.919243 0.000000
C31   C     C_R   0.786797 0.179143 0.892030 0.000000
C32   C     C_R   0.840126 0.195610 0.881122 0.000000
N9    N     N_R   0.863665 0.221342 0.845492 0.000000
C33   C     C_R   0.914652 0.223218 0.846781 0.000000
N10   N     N_R   0.922558 0.198568 0.881979 0.000000
C34   C     C_R   0.873707 0.179328 0.901965 0.000000
C35   C     C_R   0.852030 0.137199 0.931119 0.000000
H17   H     H_    0.719834 0.115627 0.924446 0.000000
H18   H     H_    0.762434 0.196156 0.876963 0.000000
H19   H     H_    0.944252 0.239144 0.821427 0.000000
H20   H     H_    0.876446 0.119024 0.944897 0.000000
Br6   Br    Br    0.025025 0.185391 0.671145 0.000000
C36   C     C_R   0.970763 0.205111 0.696218 0.000000
C37   C     C_R   0.930530 0.166393 0.721814 0.000000
C38   C     C_R   0.890079 0.179344 0.739578 0.000000
C39   C     C_R   0.890435 0.230814 0.730245 0.000000
N11   N     N_R   0.859968 0.255496 0.748438 0.000000
C40   C     C_R   0.882234 0.309694 0.732162 0.000000
N12   N     N_R   0.927267 0.320111 0.706825 0.000000
C41   C     C_R   0.930290 0.269125 0.705538 0.000000
C42   C     C_R   0.971750 0.258029 0.688775 0.000000
H21   H     H_    0.931415 0.126352 0.728664 0.000000
H22   H     H_    0.860283 0.150599 0.760914 0.000000
H23   H     H_    0.872291 0.344322 0.744728 0.000000
H24   H     H_    0.003474 0.288855 0.669635 0.000000
Br7   Br    Br    0.621782 0.334569 0.747269 0.000000
C43   C     C_R   0.685294 0.330285 0.767671 0.000000
C44   C     C_R   0.702109 0.293425 0.743466 0.000000
C45   C     C_R   0.742838 0.282116 0.759564 0.000000
C46   C     C_R   0.765893 0.308975 0.799650 0.000000
N13   N     N_R   0.795904 0.293401 0.824758 0.000000
C47   C     C_R   0.801709 0.326867 0.863354 0.000000
N14   N     N_R   0.776940 0.363129 0.862657 0.000000
C48   C     C_R   0.752593 0.348571 0.822478 0.000000
C49   C     C_R   0.711677 0.360035 0.807076 0.000000
H25   H     H_    0.680780 0.270582 0.713083 0.000000
H26   H     H_    0.752951 0.249671 0.742751 0.000000
H27   H     H_    0.820618 0.322068 0.892114 0.000000
H28   H     H_    0.696877 0.386580 0.826470 0.000000
Br8   Br    Br    0.912961 0.199288 0.590277 0.000000
C50   C     C_R   0.890403 0.220790 0.539616 0.000000
C51   C     C_R   0.840920 0.182193 0.518688 0.000000
C52   C     C_R   0.826382 0.193426 0.479060 0.000000
C53   C     C_R   0.860065 0.246142 0.462965 0.000000
N15   N     N_R   0.855162 0.267304 0.425464 0.000000
C54   C     C_R   0.899301 0.322164 0.427928 0.000000
N16   N     N_R   0.931255 0.334596 0.464982 0.000000
C55   C     C_R   0.906323 0.285547 0.485504 0.000000
C56   C     C_R   0.924750 0.272308 0.521966 0.000000
H29   H     H_    0.815752 0.140757 0.531782 0.000000
H30   H     H_    0.789682 0.161114 0.462606 0.000000
H31   H     H_    0.908483 0.352131 0.402918 0.000000
H32   H     H_    0.965447 0.300038 0.535520 0.000000
Br9   Br    Br    0.558269 0.237860 0.277063 0.000000
C57   C     C_R   0.624039 0.250754 0.306894 0.000000
C58   C     C_R   0.626883 0.203700 0.323362 0.000000
C59   C     C_R   0.676211 0.209404 0.339393 0.000000
C60   C     C_R   0.722170 0.263088 0.339738 0.000000
N17   N     N_R   0.775046 0.275358 0.347917 0.000000
C61   C     C_R   0.804138 0.328412 0.330640 0.000000
N18   N     N_R   0.771105 0.349582 0.313323 0.000000
C62   C     C_R   0.719824 0.308602 0.321612 0.000000
C63   C     C_R   0.670614 0.304213 0.306520 0.000000
H33   H     H_    0.591016 0.161171 0.321158 0.000000
H34   H     H_    0.678424 0.170628 0.346867 0.000000
H35   H     H_    0.848417 0.349165 0.328167 0.000000
H36   H     H_    0.668642 0.338925 0.290904 0.000000
Br10  Br    Br    0.669340 0.040152 0.240650 0.000000
C64   C     C_R   0.745701 0.091525 0.251809 0.000000
C65   C     C_R   0.784307 0.082977 0.226542 0.000000
C66   C     C_R   0.840023 0.114180 0.237372 0.000000
C67   C     C_R   0.855209 0.153994 0.273200 0.000000
N19   N     N_R   0.905186 0.183111 0.292967 0.000000
C68   C     C_R   0.896388 0.211992 0.329124 0.000000
N20   N     N_R   0.842637 0.201117 0.331972 0.000000
C69   C     C_R   0.817850 0.164316 0.296626 0.000000
C70   C     C_R   0.762461 0.133915 0.286782 0.000000
H37   H     H_    0.770027 0.049996 0.199284 0.000000
H38   H     H_    0.870385 0.105819 0.219754 0.000000
H39   H     H_    0.927658 0.237561 0.354053 0.000000
H40   H     H_    0.732744 0.140184 0.306863 0.000000
Br11  Br    Br    0.634180 0.206095 0.061452 0.000000
C71   C     C_R   0.682115 0.271456 0.031096 0.000000
C72   C     C_R   0.668582 0.274842 0.988492 0.000000
C73   C     C_R   0.704258 0.320114 0.965145 0.000000
C74   C     C_R   0.753596 0.359403 0.985070 0.000000
N21   N     N_R   0.794520 0.404580 0.967683 0.000000
C75   C     C_R   0.835976 0.424810 0.999120 0.000000
N22   N     N_R   0.820717 0.395678 0.035986 0.000000
C76   C     C_R   0.767600 0.356093 0.026484 0.000000
C77   C     C_R   0.731174 0.313587 0.050945 0.000000
H41   H     H_    0.630105 0.241812 0.973491 0.000000
H42   H     H_    0.694338 0.323454 0.931990 0.000000
H43   H     H_    0.877305 0.458538 0.994947 0.000000
H44   H     H_    0.739832 0.312874 0.084413 0.000000
Br12  Br    Br    0.461594 0.530188 0.006641 0.000000
C78   C     C_R   0.519759 0.586313 0.044620 0.000000
C79   C     C_R   0.516624 0.581661 0.089340 0.000000
C80   C     C_R   0.555821 0.624833 0.117832 0.000000
C81   C     C_R   0.597584 0.671641 0.100313 0.000000
N23   N     N_R   0.634811 0.721627 0.122173 0.000000
C82   C     C_R   0.662531 0.755020 0.088190 0.000000
N24   N     N_R   0.642298 0.727713 0.046925 0.000000
C83   C     C_R   0.602232 0.674909 0.056191 0.000000
C84   C     C_R   0.563434 0.632840 0.027528 0.000000
H45   H     H_    0.482072 0.545185 0.102077 0.000000
H46   H     H_    0.552074 0.623129 0.152686 0.000000
H47   H     H_    0.695666 0.799091 0.092984 0.000000
H48   H     H_    0.564888 0.637637 0.993021 0.000000
Br13  Br    Br    0.305779 0.833428 0.179184 0.000000
C85   C     C_R   0.257528 0.751586 0.167785 0.000000
C86   C     C_R   0.233586 0.729360 0.126640 0.000000
C87   C     C_R   0.197814 0.670254 0.118422 0.000000
C88   C     C_R   0.186632 0.634946 0.152022 0.000000
N25   N     N_R   0.152551 0.577137 0.151241 0.000000
C89   C     C_R   0.154447 0.565665 0.193866 0.000000
N26   N     N_R   0.189486 0.614165 0.220394 0.000000
C90   C     C_R   0.208912 0.656837 0.192690 0.000000
C91   C     C_R   0.245411 0.715038 0.201015 0.000000
H49   H     H_    0.242434 0.758436 0.101047 0.000000
H50   H     H_    0.177416 0.653614 0.087160 0.000000
H51   H     H_    0.131326 0.522621 0.205336 0.000000
H52   H     H_    0.264125 0.732347 0.232171 0.000000
Br14  Br    Br    0.401333 0.789815 0.530210 0.000000
C92   C     C_R   0.442942 0.750327 0.543529 0.000000
C93   C     C_R   0.415078 0.690177 0.546939 0.000000
C94   C     C_R   0.442691 0.659775 0.559009 0.000000
C95   C     C_R   0.497344 0.692186 0.570341 0.000000
N27   N     N_R   0.529986 0.673331 0.588471 0.000000
C96   C     C_R   0.576107 0.723700 0.600262 0.000000
N28   N     N_R   0.576007 0.772889 0.586724 0.000000
C97   C     C_R   0.524875 0.751696 0.568583 0.000000
C98   C     C_R   0.499102 0.781721 0.552827 0.000000
H53   H     H_    0.371125 0.667507 0.541273 0.000000
H54   H     H_    0.421150 0.613111 0.562563 0.000000
H55   H     H_    0.607098 0.723879 0.620697 0.000000
H56   H     H_    0.520655 0.828021 0.548969 0.000000
Br15  Br    Br    0.710284 0.464147 0.633313 0.000000
C99   C     C_R   0.677378 0.515625 0.635794 0.000000
C100  C     C_R   0.621641 0.493082 0.644435 0.000000
C101  C     C_R   0.593067 0.524099 0.636058 0.000000
C102  C     C_R   0.621461 0.576008 0.617435 0.000000
N29   N     N_R   0.601303 0.607775 0.598168 0.000000
C103  C     C_R   0.647690 0.653767 0.584931 0.000000
N30   N     N_R   0.695284 0.652918 0.596950 0.000000
C104  C     C_R   0.677387 0.601793 0.615082 0.000000
C105  C     C_R   0.706965 0.572528 0.623961 0.000000
H57   H     H_    0.599624 0.449225 0.654801 0.000000
H58   H     H_    0.549310 0.505612 0.640960 0.000000
H59   H     H_    0.647063 0.687549 0.566734 0.000000
H60   H     H_    0.750292 0.590379 0.617072 0.000000
Br16  Br    Br    0.418377 0.298447 0.473457 0.000000
C106  C     C_R   0.451073 0.381129 0.488648 0.000000
C107  C     C_R   0.486362 0.404793 0.524871 0.000000
C108  C     C_R   0.504411 0.463019 0.540011 0.000000
C109  C     C_R   0.489454 0.496935 0.516739 0.000000
N31   N     N_R   0.495760 0.551438 0.528515 0.000000
C110  C     C_R   0.475636 0.564223 0.492238 0.000000
N32   N     N_R   0.453901 0.517882 0.460332 0.000000
C111  C     C_R   0.461207 0.475718 0.478138 0.000000
C112  C     C_R   0.437252 0.416753 0.465450 0.000000
H61   H     H_    0.496352 0.376596 0.543186 0.000000
H62   H     H_    0.527480 0.480391 0.569904 0.000000
H63   H     H_    0.477777 0.606759 0.488730 0.000000
H64   H     H_    0.404064 0.398149 0.441698 0.000000
Br17  Br    Br    0.346287 0.337201 0.565545 0.000000
C113  C     C_R   0.371137 0.398501 0.611557 0.000000
C114  C     C_R   0.353892 0.384739 0.653330 0.000000
C115  C     C_R   0.374479 0.427488 0.687751 0.000000
C116  C     C_R   0.415236 0.481850 0.679617 0.000000
N33   N     N_R   0.444598 0.526926 0.708953 0.000000
C117  C     C_R   0.481561 0.568664 0.683748 0.000000
N34   N     N_R   0.475318 0.550896 0.639790 0.000000
C118  C     C_R   0.432600 0.495903 0.638643 0.000000
C119  C     C_R   0.407922 0.455479 0.603616 0.000000
H65   H     H_    0.324202 0.340440 0.658954 0.000000
H66   H     H_    0.360192 0.417106 0.720003 0.000000
H67   H     H_    0.513109 0.610866 0.697272 0.000000
H68   H     H_    0.415815 0.466878 0.570967 0.000000
Br18  Br    Br    0.721226 0.166065 0.564827 0.000000
C120  C     C_R   0.704233 0.084951 0.562242 0.000000
C121  C     C_R   0.698544 0.058510 0.600533 0.000000
C122  C     C_R   0.683405 0.999174 0.599351 0.000000
C123  C     C_R   0.670237 0.966533 0.559559 0.000000
N35   N     N_R   0.652083 0.908008 0.551079 0.000000
C124  C     C_R   0.650032 0.900995 0.506179 0.000000
N36   N     N_R   0.666338 0.952949 0.487089 0.000000
C125  C     C_R   0.678686 0.993039 0.521837 0.000000
C126  C     C_R   0.697721 0.052777 0.522460 0.000000
H69   H     H_    0.706601 0.084565 0.631510 0.000000
H70   H     H_    0.683150 0.980501 0.629110 0.000000
H71   H     H_    0.637234 0.858879 0.487680 0.000000
H72   H     H_    0.708259 0.074712 0.493386 0.000000
Br19  Br    Br    0.473885 0.979281 0.713693 0.000000
C127  C     C_R   0.522941 0.948923 0.693336 0.000000
C128  C     C_R   0.521861 0.930377 0.649516 0.000000
C129  C     C_R   0.556982 0.907800 0.634482 0.000000
C130  C     C_R   0.592013 0.904016 0.664062 0.000000
N37   N     N_R   0.630073 0.884924 0.656557 0.000000
C131  C     C_R   0.656179 0.895477 0.696306 0.000000
N38   N     N_R   0.636276 0.921804 0.727499 0.000000
C132  C     C_R   0.595198 0.925114 0.706235 0.000000
C133  C     C_R   0.560347 0.946772 0.722142 0.000000
H73   H     H_    0.493658 0.933893 0.627012 0.000000
H74   H     H_    0.558485 0.896143 0.600469 0.000000
H75   H     H_    0.689661 0.885160 0.702021 0.000000
H76   H     H_    0.561271 0.960706 0.755926 0.000000
Br20  Br    Br    0.867586 0.032433 0.553208 0.000000
C134  C     C_R   0.825943 0.949480 0.550096 0.000000
C135  C     C_R   0.850113 0.913811 0.536230 0.000000
C136  C     C_R   0.826000 0.855538 0.545220 0.000000
C137  C     C_R   0.778751 0.835762 0.568844 0.000000
N39   N     N_R   0.755348 0.787802 0.591275 0.000000
C138  C     C_R   0.713162 0.793232 0.611369 0.000000
N40   N     N_R   0.706944 0.839989 0.599843 0.000000
C139  C     C_R   0.751012 0.868063 0.575677 0.000000
C140  C     C_R   0.774383 0.925951 0.567670 0.000000
H77   H     H_    0.890294 0.932839 0.522024 0.000000
H78   H     H_    0.847054 0.829295 0.537629 0.000000
H79   H     H_    0.689465 0.764540 0.635278 0.000000
H80   H     H_    0.757753 0.954474 0.580913 0.000000
Br21  Br    Br    0.010197 0.775211 0.620750 0.000000
C141  C     C_R   0.959834 0.762666 0.574213 0.000000
C142  C     C_R   0.978332 0.771358 0.532143 0.000000
C143  C     C_R   0.941455 0.758376 0.497750 0.000000
C144  C     C_R   0.886626 0.737711 0.506298 0.000000
N41   N     N_R   0.843485 0.720031 0.477986 0.000000
C145  C     C_R   0.799756 0.706624 0.505250 0.000000
N42   N     N_R   0.814661 0.715812 0.548276 0.000000
C146  C     C_R   0.869233 0.733537 0.547908 0.000000
C147  C     C_R   0.904721 0.743608 0.582441 0.000000
H81   H     H_    0.021668 0.787107 0.526036 0.000000
H82   H     H_    0.956226 0.765939 0.465780 0.000000
H83   H     H_    0.757312 0.690154 0.495305 0.000000
H84   H     H_    0.890341 0.732957 0.614560 0.000000
Br22  Br    Br    0.969914 0.943244 0.623212 0.000000
C148  C     C_R   0.926765 0.883149 0.659719 0.000000
C149  C     C_R   0.944123 0.885606 0.702331 0.000000
C150  C     C_R   0.915949 0.838880 0.727097 0.000000
C151  C     C_R   0.872694 0.789644 0.707364 0.000000
N43   N     N_R   0.845229 0.736245 0.722024 0.000000
C152  C     C_R   0.806499 0.704634 0.689560 0.000000
N44   N     N_R   0.810349 0.736563 0.655089 0.000000
C153  C     C_R   0.852763 0.789472 0.667407 0.000000
C154  C     C_R   0.879399 0.835620 0.642654 0.000000
H85   H     H_    0.980939 0.923175 0.715724 0.000000
H86   H     H_    0.930053 0.840180 0.759888 0.000000
H87   H     H_    0.775966 0.659525 0.691209 0.000000
H88   H     H_    0.867427 0.832268 0.609424 0.000000
Br23  Br    Br    0.413076 0.263269 0.358081 0.000000
C155  C     C_R   0.467037 0.341854 0.351391 0.000000
C156  C     C_R   0.516354 0.351638 0.332887 0.000000
C157  C     C_R   0.553984 0.407540 0.324406 0.000000
C158  C     C_R   0.540829 0.453034 0.333941 0.000000
N45   N     N_R   0.571820 0.510565 0.328784 0.000000
C159  C     C_R   0.539654 0.535550 0.346097 0.000000
N46   N     N_R   0.490193 0.495493 0.361583 0.000000
C160  C     C_R   0.493091 0.444076 0.353787 0.000000
C161  C     C_R   0.456232 0.388497 0.363738 0.000000
H89   H     H_    0.525442 0.315301 0.325229 0.000000
H90   H     H_    0.592765 0.414068 0.311972 0.000000
H91   H     H_    0.553069 0.582424 0.348968 0.000000
H92   H     H_    0.417873 0.379530 0.378063 0.000000
Br24  Br    Br    0.235094 0.224210 0.269286 0.000000
C162  C     C_R   0.272328 0.297720 0.303402 0.000000
C163  C     C_R   0.328185 0.332532 0.298647 0.000000
C164  C     C_R   0.355399 0.386193 0.322969 0.000000
C165  C     C_R   0.327543 0.401245 0.354916 0.000000
N47   N     N_R   0.346542 0.452296 0.380797 0.000000
C166  C     C_R   0.297506 0.453700 0.391835 0.000000
N48   N     N_R   0.250477 0.404826 0.375552 0.000000
C167  C     C_R   0.271267 0.371264 0.354790 0.000000
C168  C     C_R   0.242749 0.318609 0.329933 0.000000
H93   H     H_    0.350161 0.318703 0.274669 0.000000
H94   H     H_    0.396653 0.416564 0.315345 0.000000
H95   H     H_    0.295168 0.491110 0.408221 0.000000
H96   H     H_    0.198674 0.294644 0.329783 0.000000
Br25  Br    Br    0.284260 0.566430 0.493172 0.000000
C169  C     C_R   0.341551 0.607935 0.454571 0.000000
C170  C     C_R   0.344208 0.657199 0.437217 0.000000
C171  C     C_R   0.382042 0.684023 0.405874 0.000000
C172  C     C_R   0.416995 0.661146 0.392405 0.000000
N49   N     N_R   0.452136 0.675516 0.359048 0.000000
C173  C     C_R   0.466268 0.630422 0.354751 0.000000
N50   N     N_R   0.441777 0.590232 0.384692 0.000000
C174  C     C_R   0.412459 0.611712 0.408280 0.000000
C175  C     C_R   0.376952 0.585440 0.440631 0.000000
H97   H     H_    0.315020 0.673328 0.446910 0.000000
H98   H     H_    0.379694 0.717837 0.389930 0.000000
H99   H     H_    0.490986 0.625054 0.328779 0.000000
H100  H     H_    0.373468 0.545667 0.452657 0.000000
Br26  Br    Br    0.337908 0.633708 0.663155 0.000000
C176  C     C_R   0.378647 0.654971 0.717039 0.000000
C177  C     C_R   0.391196 0.708965 0.739724 0.000000
C178  C     C_R   0.419299 0.724557 0.779474 0.000000
C179  C     C_R   0.435773 0.686029 0.794523 0.000000
N51   N     N_R   0.459604 0.690376 0.833279 0.000000
C180  C     C_R   0.464376 0.639506 0.832926 0.000000
N52   N     N_R   0.443848 0.604073 0.795095 0.000000
C181  C     C_R   0.425329 0.634254 0.772014 0.000000
C182  C     C_R   0.394828 0.616352 0.733521 0.000000
H101  H     H_    0.377905 0.738425 0.726665 0.000000
H102  H     H_    0.428150 0.765758 0.797778 0.000000
H103  H     H_    0.479129 0.626889 0.860589 0.000000
H104  H     H_    0.381988 0.573265 0.716994 0.000000
Br27  Br    Br    0.415220 0.280679 0.743397 0.000000
C183  C     C_R   0.468343 0.355094 0.769377 0.000000
C184  C     C_R   0.515278 0.359698 0.790109 0.000000
C185  C     C_R   0.554347 0.413303 0.809397 0.000000
C186  C     C_R   0.543905 0.460716 0.808436 0.000000
N53   N     N_R   0.573323 0.515149 0.828008 0.000000
C187  C     C_R   0.539466 0.541201 0.822187 0.000000
N54   N     N_R   0.492501 0.506199 0.797789 0.000000
C188  C     C_R   0.496663 0.455740 0.789698 0.000000
C189  C     C_R   0.458683 0.403549 0.768985 0.000000
H105  H     H_    0.520736 0.320733 0.791731 0.000000
H106  H     H_    0.590314 0.416865 0.826333 0.000000
H107  H     H_    0.547740 0.584611 0.835704 0.000000
H108  H     H_    0.420959 0.399213 0.755181 0.000000
Br28  Br    Br    0.398044 0.344584 0.898982 0.000000
C190  C     C_R   0.350957 0.364947 0.866881 0.000000
C191  C     C_R   0.294293 0.332978 0.869287 0.000000
C192  C     C_R   0.259636 0.349346 0.848293 0.000000
C193  C     C_R   0.282934 0.395273 0.822556 0.000000
N55   N     N_R   0.257320 0.419859 0.800943 0.000000
C194  C     C_R   0.301175 0.465163 0.782620 0.000000
N56   N     N_R   0.352081 0.468136 0.791572 0.000000
C195  C     C_R   0.338708 0.424518 0.817962 0.000000
C196  C     C_R   0.373610 0.412161 0.841911 0.000000
H109  H     H_    0.277262 0.295996 0.888662 0.000000
H110  H     H_    0.215943 0.326184 0.852192 0.000000
H111  H     H_    0.296457 0.496867 0.764376 0.000000
H112  H     H_    0.417212 0.439266 0.843086 0.000000
Br29  Br    Br    0.611912 0.752928 0.374889 0.000000
C197  C     C_R   0.685257 0.764755 0.382885 0.000000
C198  C     C_R   0.694741 0.730568 0.410325 0.000000
C199  C     C_R   0.746199 0.733777 0.413195 0.000000
C200  C     C_R   0.787956 0.772536 0.389844 0.000000
N57   N     N_R   0.838517 0.776569 0.384656 0.000000
C201  C     C_R   0.861965 0.820825 0.357076 0.000000
N58   N     N_R   0.826806 0.842799 0.345086 0.000000
C202  C     C_R   0.780154 0.809425 0.365456 0.000000
C203  C     C_R   0.727924 0.804294 0.359896 0.000000
H113  H     H_    0.661093 0.698797 0.427536 0.000000
H114  H     H_    0.751772 0.703596 0.431186 0.000000
H115  H     H_    0.902745 0.834977 0.344601 0.000000
H116  H     H_    0.718448 0.826437 0.336017 0.000000
Br30  Br    Br    0.150614 0.852891 0.369819 0.000000
C204  C     C_R   0.073889 0.804868 0.375598 0.000000
C205  C     C_R   0.039401 0.831241 0.381602 0.000000
C206  C     C_R   0.983675 0.797537 0.386999 0.000000
C207  C     C_R   0.964310 0.737890 0.386997 0.000000
N59   N     N_R   0.912799 0.697799 0.394733 0.000000
C208  C     C_R   0.916951 0.646248 0.392793 0.000000
N60   N     N_R   0.969566 0.653558 0.385939 0.000000
C209  C     C_R   0.998250 0.711941 0.382324 0.000000
C210  C     C_R   0.053398 0.744482 0.375411 0.000000
H117  H     H_    0.056422 0.878547 0.382765 0.000000
H118  H     H_    0.957002 0.817825 0.393330 0.000000
H119  H     H_    0.882236 0.603999 0.396622 0.000000
H120  H     H_    0.080471 0.724596 0.370864 0.000000
Br31  Br    Br    0.742017 0.495276 0.512806 0.000000
C211  C     C_R   0.727808 0.523550 0.461739 0.000000
C212  C     C_R   0.678739 0.489430 0.438402 0.000000
C213  C     C_R   0.667112 0.507660 0.400720 0.000000
C214  C     C_R   0.704914 0.560577 0.387673 0.000000
N61   N     N_R   0.703231 0.585964 0.351623 0.000000
C215  C     C_R   0.752409 0.635143 0.353055 0.000000
N62   N     N_R   0.783364 0.641628 0.389395 0.000000
C216  C     C_R   0.752965 0.593666 0.410141 0.000000
C217  C     C_R   0.766033 0.576575 0.447564 0.000000
H121  H     H_    0.649588 0.447926 0.449579 0.000000
H122  H     H_    0.629642 0.480802 0.382577 0.000000
H123  H     H_    0.765235 0.665889 0.328348 0.000000
H124  H     H_    0.805131 0.602413 0.464612 0.000000
Br32  Br    Br    0.832684 0.493786 0.693765 0.000000
C218  C     C_R   0.787947 0.520064 0.727881 0.000000
C219  C     C_R   0.737046 0.479770 0.741669 0.000000
C220  C     C_R   0.706045 0.497419 0.769776 0.000000
C221  C     C_R   0.728594 0.555874 0.784420 0.000000
N63   N     N_R   0.712067 0.582727 0.816783 0.000000
C222  C     C_R   0.753591 0.638968 0.820694 0.000000
N64   N     N_R   0.793518 0.647574 0.791434 0.000000
C223  C     C_R   0.777478 0.594922 0.769644 0.000000
C224  C     C_R   0.807656 0.579071 0.740526 0.000000
H125  H     H_    0.722448 0.434146 0.730550 0.000000
H126  H     H_    0.667527 0.465943 0.781736 0.000000
H127  H     H_    0.755638 0.672828 0.845082 0.000000
H128  H     H_    0.847128 0.610856 0.730065 0.000000
Br33  Br    Br    0.934866 0.728276 0.964517 0.000000
C225  C     C_R   0.907640 0.768680 0.931498 0.000000
C226  C     C_R   0.901785 0.815619 0.952267 0.000000
C227  C     C_R   0.882707 0.846872 0.929380 0.000000
C228  C     C_R   0.870291 0.829823 0.885859 0.000000
N65   N     N_R   0.852346 0.854587 0.857432 0.000000
C229  C     C_R   0.847043 0.821545 0.819068 0.000000
N66   N     N_R   0.862859 0.778523 0.822901 0.000000
C230  C     C_R   0.876945 0.784758 0.865331 0.000000
C231  C     C_R   0.894983 0.752280 0.887439 0.000000
H129  H     H_    0.912744 0.828093 0.986500 0.000000
H130  H     H_    0.880048 0.884730 0.945037 0.000000
H131  H     H_    0.830366 0.827505 0.789342 0.000000
H132  H     H_    0.899615 0.715801 0.871361 0.000000
Br34  Br    Br    0.097806 0.867603 0.716018 0.000000
C232  C     C_R   0.058752 0.795284 0.741776 0.000000
C233  C     C_R   0.086919 0.765041 0.753938 0.000000
C234  C     C_R   0.059709 0.713695 0.774110 0.000000
C235  C     C_R   0.004865 0.694797 0.781838 0.000000
N67   N     N_R   0.971983 0.648480 0.802930 0.000000
C236  C     C_R   0.922841 0.651058 0.803768 0.000000
N68   N     N_R   0.924086 0.697403 0.783685 0.000000
C237  C     C_R   0.976719 0.724069 0.770165 0.000000
C238  C     C_R   0.002980 0.774315 0.749199 0.000000
H133  H     H_    0.130395 0.781996 0.747923 0.000000
H134  H     H_    0.081109 0.689887 0.784051 0.000000
H135  H     H_    0.887023 0.620500 0.819752 0.000000
H136  H     H_    0.981844 0.797393 0.738922 0.000000
Br35  Br    Br    0.915742 0.129281 0.473871 0.000000
C239  C     C_R   0.867530 0.054586 0.445905 0.000000
C240  C     C_R   0.893759 0.025035 0.424848 0.000000
C241  C     C_R   0.865472 0.979132 0.394462 0.000000
C242  C     C_R   0.811668 0.965240 0.386094 0.000000
N69   N     N_R   0.781180 0.932209 0.351545 0.000000
C243  C     C_R   0.730776 0.929914 0.358522 0.000000
N70   N     N_R   0.729620 0.960428 0.396608 0.000000
C244  C     C_R   0.782523 0.985424 0.411906 0.000000
C245  C     C_R   0.810132 0.032497 0.442565 0.000000
H137  H     H_    0.937692 0.041487 0.429407 0.000000
H138  H     H_    0.886339 0.957787 0.376292 0.000000
H139  H     H_    0.695650 0.906182 0.336483 0.000000
H140  H     H_    0.789345 0.054918 0.459680 0.000000
Br36  Br    Br    0.482577 0.954279 0.519404 0.000000
C246  C     C_R   0.489951 0.911253 0.468288 0.000000
C247  C     C_R   0.443765 0.870616 0.444361 0.000000
C248  C     C_R   0.448899 0.837409 0.408509 0.000000
C249  C     C_R   0.500785 0.848558 0.395167 0.000000
N71   N     N_R   0.515989 0.822534 0.361227 0.000000
C250  C     C_R   0.572524 0.857430 0.361655 0.000000
N72   N     N_R   0.592191 0.901792 0.395391 0.000000
C251  C     C_R   0.545832 0.893332 0.416061 0.000000
C252  C     C_R   0.541630 0.921921 0.454462 0.000000
H141  H     H_    0.403287 0.863794 0.454312 0.000000
H142  H     H_    0.412673 0.807249 0.390520 0.000000
H143  H     H_    0.598903 0.849410 0.338528 0.000000
H144  H     H_    0.577313 0.952115 0.473563 0.000000
Br37  Br    Br    0.636051 0.247424 0.486726 0.000000
C253  C     C_R   0.647635 0.183271 0.462119 0.000000
C254  C     C_R   0.610295 0.126017 0.469102 0.000000
C255  C     C_R   0.618705 0.078922 0.452334 0.000000
C256  C     C_R   0.664291 0.090000 0.427805 0.000000
N73   N     N_R   0.684293 0.052684 0.411641 0.000000
C257  C     C_R   0.730662 0.089596 0.390759 0.000000
N74   N     N_R   0.740606 0.147512 0.394894 0.000000
C258  C     C_R   0.699264 0.146250 0.419569 0.000000
C259  C     C_R   0.693142 0.193892 0.437269 0.000000
H145  H     H_    0.574614 0.118099 0.488402 0.000000
H146  H     H_    0.589496 0.035614 0.458334 0.000000
H147  H     H_    0.758403 0.075221 0.374669 0.000000
H148  H     H_    0.722849 0.238254 0.431879 0.000000
Br38  Br    Br    0.544839 0.947014 0.012930 0.000000
C260  C     C_R   0.562307 0.936681 0.953786 0.000000
C261  C     C_R   0.608419 0.980733 0.936428 0.000000
C262  C     C_R   0.622335 0.973874 0.893674 0.000000
C263  C     C_R   0.588221 0.923110 0.869022 0.000000
N75   N     N_R   0.594260 0.906727 0.827443 0.000000
C264  C     C_R   0.550838 0.850696 0.820858 0.000000
N76   N     N_R   0.519117 0.832443 0.856998 0.000000
C265  C     C_R   0.543395 0.879637 0.886204 0.000000
C266  C     C_R   0.529406 0.885038 0.928662 0.000000
H149  H     H_    0.633843 0.020543 0.956641 0.000000
H150  H     H_    0.658793 0.007290 0.880331 0.000000
H151  H     H_    0.544607 0.822295 0.791283 0.000000
H152  H     H_    0.493655 0.850602 0.941967 0.000000
Br39  Br    Br    0.590659 0.201636 0.861072 0.000000
C267  C     C_R   0.618361 0.149401 0.837450 0.000000
C268  C     C_R   0.584972 0.089261 0.834665 0.000000
C269  C     C_R   0.605734 0.051174 0.819795 0.000000
C270  C     C_R   0.659137 0.074485 0.806092 0.000000
N77   N     N_R   0.688035 0.045203 0.793957 0.000000
C271  C     C_R   0.740194 0.090280 0.788568 0.000000
N78   N     N_R   0.744289 0.146021 0.796463 0.000000
C272  C     C_R   0.692102 0.133903 0.807844 0.000000
C273  C     C_R   0.672487 0.171973 0.824971 0.000000
H153  H     H_    0.543164 0.072023 0.845698 0.000000
H154  H     H_    0.580726 0.004659 0.820675 0.000000
H155  H     H_    0.775395 0.082824 0.781763 0.000000
H156  H     H_    0.698065 0.217911 0.831210 0.000000
Br40  Br    Br    0.935047 0.015260 0.714773 0.000000
C274  C     C_R   0.865797 0.990458 0.740976 0.000000
C275  C     C_R   0.825939 0.000921 0.721405 0.000000
C276  C     C_R   0.775797 0.985815 0.740526 0.000000
C277  C     C_R   0.766852 0.959503 0.778749 0.000000
N79   N     N_R   0.723164 0.944762 0.804388 0.000000
C278  C     C_R   0.738160 0.927068 0.840263 0.000000
N80   N     N_R   0.788755 0.928784 0.836671 0.000000
C279  C     C_R   0.805831 0.949598 0.797893 0.000000
C280  C     C_R   0.856218 0.964606 0.779919 0.000000
H157  H     H_    0.834713 0.022305 0.691508 0.000000
H158  H     H_    0.745866 0.996532 0.726452 0.000000
H159  H     H_    0.713398 0.914668 0.868816 0.000000
H160  H     H_    0.887574 0.957632 0.795814 0.000000
Br41  Br    Br    0.382542 0.916376 0.821233 0.000000
C281  C     C_R   0.350571 0.842440 0.845477 0.000000
C282  C     C_R   0.293734 0.810982 0.847594 0.000000
C283  C     C_R   0.269755 0.756975 0.864765 0.000000
C284  C     C_R   0.303490 0.736106 0.880885 0.000000
N81   N     N_R   0.289073 0.684018 0.897638 0.000000
C285  C     C_R   0.339346 0.683066 0.899884 0.000000
N82   N     N_R   0.383485 0.733261 0.887342 0.000000
C286  C     C_R   0.359258 0.765641 0.876098 0.000000
C287  C     C_R   0.383992 0.819164 0.859061 0.000000
H161  H     H_    0.267852 0.828228 0.834848 0.000000
H162  H     H_    0.226084 0.731124 0.862600 0.000000
H163  H     H_    0.344161 0.646100 0.909388 0.000000
H164  H     H_    0.427969 0.842311 0.855804 0.000000
Br42  Br    Br    0.454007 0.682976 0.110960 0.000000
C288  C     C_R   0.470098 0.711541 0.054878 0.000000
C289  C     C_R   0.426875 0.707408 0.029412 0.000000
C290  C     C_R   0.435398 0.722338 0.987203 0.000000
C291  C     C_R   0.486439 0.737073 0.970692 0.000000
N83   N     N_R   0.501857 0.748093 0.929783 0.000000
C292  C     C_R   0.555944 0.761336 0.930918 0.000000
N84   N     N_R   0.575190 0.757076 0.970664 0.000000
C293  C     C_R   0.529919 0.742713 0.995479 0.000000
C294  C     C_R   0.523058 0.733216 0.038991 0.000000
H165  H     H_    0.386231 0.692126 0.042631 0.000000
H166  H     H_    0.402347 0.720931 0.968033 0.000000
H167  H     H_    0.579138 0.774773 0.902632 0.000000
H168  H     H_    0.556932 0.742454 0.060607 0.000000
Br43  Br    Br    0.559914 0.474571 0.034016 0.000000
C295  C     C_R   0.612324 0.467774 0.995773 0.000000
C296  C     C_R   0.646683 0.446219 0.010711 0.000000
C297  C     C_R   0.685193 0.440283 0.983949 0.000000
C298  C     C_R   0.686769 0.453422 0.941536 0.000000
N85   N     N_R   0.721979 0.453149 0.910143 0.000000
C299  C     C_R   0.712035 0.482272 0.878836 0.000000
N86   N     N_R   0.670953 0.498002 0.888835 0.000000
C300  C     C_R   0.655474 0.478532 0.928122 0.000000
C301  C     C_R   0.617726 0.486206 0.954283 0.000000
H169  H     H_    0.644181 0.435184 0.044009 0.000000
H170  H     H_    0.714584 0.429287 0.997604 0.000000
H171  H     H_    0.737204 0.495038 0.850751 0.000000
H172  H     H_    0.593207 0.505916 0.942927 0.000000
Br44  Br    Br    0.644371 0.804330 0.794697 0.000000
C302  C     C_R   0.647809 0.745844 0.826106 0.000000
C303  C     C_R   0.645728 0.697316 0.802049 0.000000
C304  C     C_R   0.648304 0.653537 0.822647 0.000000
C305  C     C_R   0.650662 0.658110 0.867575 0.000000
N87   N     N_R   0.652740 0.619286 0.892968 0.000000
C306  C     C_R   0.652282 0.643402 0.934426 0.000000
N88   N     N_R   0.650199 0.696037 0.935030 0.000000
C307  C     C_R   0.649734 0.703852 0.891898 0.000000
C308  C     C_R   0.651308 0.750508 0.871280 0.000000
H173  H     H_    0.642409 0.693886 0.766909 0.000000
H174  H     H_    0.645088 0.615516 0.802909 0.000000
H175  H     H_    0.652406 0.622616 0.963460 0.000000
H176  H     H_    0.657923 0.791224 0.888972 0.000000
Br45  Br    Br    0.616716 0.321671 0.123153 0.000000
C309  C     C_R   0.633394 0.374189 0.174361 0.000000
C310  C     C_R   0.601770 0.403449 0.183289 0.000000
C311  C     C_R   0.613293 0.442403 0.219959 0.000000
C312  C     C_R   0.656424 0.450397 0.246611 0.000000
N89   N     N_R   0.675624 0.487619 0.282561 0.000000
C313  C     C_R   0.719891 0.480354 0.295810 0.000000
N90   N     N_R   0.728676 0.440065 0.269048 0.000000
C314  C     C_R   0.687982 0.422356 0.238144 0.000000
C315  C     C_R   0.677015 0.383346 0.201839 0.000000
H177  H     H_    0.568198 0.395933 0.161284 0.000000
H178  H     H_    0.589458 0.465974 0.227268 0.000000
H179  H     H_    0.746715 0.505573 0.323375 0.000000
H180  H     H_    0.701044 0.360533 0.194350 0.000000
Br46  Br    Br    0.770230 0.643926 0.086868 0.000000
C316  C     C_R   0.734818 0.627431 0.141260 0.000000
C317  C     C_R   0.740579 0.588008 0.166205 0.000000
C318  C     C_R   0.717486 0.577984 0.206777 0.000000
C319  C     C_R   0.684670 0.603856 0.219973 0.000000
N91   N     N_R   0.656879 0.599440 0.257264 0.000000
C320  C     C_R   0.634467 0.637211 0.253325 0.000000
N92   N     N_R   0.647414 0.664157 0.215171 0.000000
C321  C     C_R   0.678813 0.642082 0.195140 0.000000
C322  C     C_R   0.705111 0.656412 0.156405 0.000000
H181  H     H_    0.765904 0.567443 0.154955 0.000000
H182  H     H_    0.728147 0.553169 0.227510 0.000000
H183  H     H_    0.610383 0.645813 0.278320 0.000000
H184  H     H_    0.703630 0.689443 0.138134 0.000000
Br47  Br    Br    0.031461 0.464233 0.988083 0.000000
C323  C     C_R   0.063659 0.459580 0.934536 0.000000
C324  C     C_R   0.048838 0.407087 0.909359 0.000000
C325  C     C_R   0.077757 0.406628 0.872384 0.000000
C326  C     C_R   0.127245 0.454629 0.868142 0.000000
N93   N     N_R   0.169815 0.460127 0.843399 0.000000
C327  C     C_R   0.206963 0.518203 0.851589 0.000000
N94   N     N_R   0.188304 0.547586 0.880972 0.000000
C328  C     C_R   0.138948 0.505883 0.890948 0.000000
C329  C     C_R   0.104612 0.510481 0.921681 0.000000
H185  H     H_    0.013928 0.367252 0.917665 0.000000
H186  H     H_    0.062698 0.368896 0.849224 0.000000
H187  H     H_    0.247005 0.538216 0.837237 0.000000
H188  H     H_    0.110542 0.551582 0.937672 0.000000
Br48  Br    Br    0.074333 0.079029 0.745805 0.000000
C330  C     C_R   0.084567 0.155175 0.767716 0.000000
C331  C     C_R   0.125498 0.204133 0.750309 0.000000
C332  C     C_R   0.138548 0.260214 0.768510 0.000000
C333  C     C_R   0.111614 0.265111 0.805232 0.000000
N95   N     N_R   0.123372 0.314561 0.830938 0.000000
C334  C     C_R   0.088932 0.293010 0.865466 0.000000
N96   N     N_R   0.053107 0.233831 0.859575 0.000000
C335  C     C_R   0.070249 0.217302 0.821943 0.000000
C336  C     C_R   0.054383 0.161456 0.802607 0.000000
H189  H     H_    0.148316 0.198223 0.723021 0.000000
H190  H     H_    0.171446 0.298489 0.756092 0.000000
H191  H     H_    0.088878 0.319531 0.894503 0.000000
H192  H     H_    0.022192 0.123421 0.815579 0.000000
Br49  Br    Br    0.285198 0.470905 0.631727 0.000000
C337  C     C_R   0.213392 0.442378 0.654423 0.000000
C338  C     C_R   0.171338 0.441566 0.629292 0.000000
C339  C     C_R   0.118534 0.420607 0.644619 0.000000
C340  C     C_R   0.110261 0.406742 0.686934 0.000000
N97   N     N_R   0.065028 0.394114 0.710995 0.000000
C341  C     C_R   0.081933 0.386864 0.750707 0.000000
N98   N     N_R   0.134967 0.394968 0.752157 0.000000
C342  C     C_R   0.151823 0.407542 0.711581 0.000000
C343  C     C_R   0.203343 0.423136 0.695642 0.000000
H193  H     H_    0.179835 0.456574 0.597080 0.000000
H194  H     H_    0.085683 0.415040 0.623350 0.000000
H195  H     H_    0.057691 0.378635 0.778971 0.000000
H196  H     H_    0.235259 0.421455 0.714510 0.000000
Br50  Br    Br    0.230771 0.348263 0.536422 0.000000
C344  C     C_R   0.177058 0.367166 0.514187 0.000000
C345  C     C_R   0.131682 0.359058 0.538760 0.000000
C346  C     C_R   0.093342 0.375289 0.524376 0.000000
C347  C     C_R   0.100066 0.396071 0.484107 0.000000
N99   N     N_R   0.064607 0.407747 0.462047 0.000000
C348  C     C_R   0.086127 0.415419 0.421068 0.000000
N100  N     N_R   0.134069 0.410039 0.417732 0.000000
C349  C     C_R   0.142034 0.399042 0.458305 0.000000
C350  C     C_R   0.182563 0.386978 0.473272 0.000000
H197  H     H_    0.126714 0.340599 0.569689 0.000000
H198  H     H_    0.058187 0.368762 0.543494 0.000000
H199  H     H_    0.065313 0.420721 0.393464 0.000000
H200  H     H_    0.216918 0.391075 0.453784 0.000000
Br51  Br    Br    0.136442 0.208959 0.473899 0.000000
C351  C     C_R   0.101346 0.215200 0.423002 0.000000
C352  C     C_R   0.051577 0.168664 0.408075 0.000000
C353  C     C_R   0.026367 0.170801 0.370136 0.000000
C354  C     C_R   0.052524 0.219733 0.347636 0.000000
N101  N     N_R   0.036010 0.230574 0.310021 0.000000
C355  C     C_R   0.073959 0.288422 0.305818 0.000000
N102  N     N_R   0.113535 0.312482 0.339142 0.000000
C356  C     C_R   0.098992 0.267245 0.364071 0.000000
C357  C     C_R   0.125147 0.265722 0.401293 0.000000
H201  H     H_    0.032610 0.130269 0.426090 0.000000
H202  H     H_    0.986860 0.135585 0.359649 0.000000
H203  H     H_    0.071109 0.313345 0.280240 0.000000
H204  H     H_    0.164207 0.301486 0.412095 0.000000
Br52  Br    Br    0.344091 0.438464 0.228197 0.000000
C358  C     C_R   0.299855 0.473925 0.250605 0.000000
C359  C     C_R   0.308546 0.526984 0.235794 0.000000
C360  C     C_R   0.273357 0.550680 0.247173 0.000000
C361  C     C_R   0.233791 0.523183 0.276610 0.000000
N103  N     N_R   0.202133 0.544019 0.297024 0.000000
C362  C     C_R   0.173423 0.503088 0.325442 0.000000
N104  N     N_R   0.186496 0.457328 0.322878 0.000000
C363  C     C_R   0.225028 0.471826 0.291817 0.000000
C364  C     C_R   0.256323 0.444688 0.277552 0.000000
H205  H     H_    0.341256 0.548238 0.213569 0.000000
H206  H     H_    0.278815 0.591160 0.234955 0.000000
H207  H     H_    0.146441 0.508516 0.349412 0.000000
H208  H     H_    0.246342 0.401365 0.285395 0.000000
Br53  Br    Br    0.459410 0.878063 0.180680 0.000000
C365  C     C_R   0.494092 0.830108 0.190529 0.000000
C366  C     C_R   0.529849 0.824705 0.160075 0.000000
C367  C     C_R   0.556302 0.791056 0.167149 0.000000
C368  C     C_R   0.546430 0.764000 0.205034 0.000000
N105  N     N_R   0.570986 0.733743 0.220079 0.000000
C369  C     C_R   0.547652 0.719887 0.260098 0.000000
N106  N     N_R   0.509699 0.740432 0.269769 0.000000
C370  C     C_R   0.510528 0.768282 0.234467 0.000000
C371  C     C_R   0.483783 0.801241 0.228080 0.000000
H209  H     H_    0.536735 0.846517 0.130469 0.000000
H210  H     H_    0.581957 0.784594 0.142761 0.000000
H211  H     H_    0.560437 0.698536 0.282889 0.000000
H212  H     H_    0.456400 0.805485 0.251701 0.000000
Br54  Br    Br    0.273632 0.880956 0.311246 0.000000
C372  C     C_R   0.311452 0.834383 0.312211 0.000000
C373  C     C_R   0.368651 0.862202 0.314234 0.000000
C374  C     C_R   0.397605 0.829762 0.313339 0.000000
C375  C     C_R   0.368036 0.769478 0.309491 0.000000
N107  N     N_R   0.387566 0.729670 0.308908 0.000000
C376  C     C_R   0.340059 0.676977 0.302845 0.000000
N108  N     N_R   0.292256 0.682895 0.299502 0.000000
C377  C     C_R   0.311744 0.741926 0.305774 0.000000
C378  C     C_R   0.282172 0.773526 0.309031 0.000000
H213  H     H_    0.390747 0.909693 0.316601 0.000000
H214  H     H_    0.442057 0.851476 0.315597 0.000000
H215  H     H_    0.340603 0.635211 0.302934 0.000000
H216  H     H_    0.237668 0.751739 0.306783 0.000000
Br55  Br    Br    0.148547 0.087816 0.892942 0.000000
C379  C     C_R   0.070344 0.056092 0.892455 0.000000
C380  C     C_R   0.037763 0.995649 0.888406 0.000000
C381  C     C_R   0.980935 0.971954 0.886334 0.000000
C382  C     C_R   0.957635 0.009683 0.889710 0.000000
N109  N     N_R   0.903857 0.996982 0.886822 0.000000
C383  C     C_R   0.906203 0.051630 0.886654 0.000000
N110  N     N_R   0.958850 0.097210 0.891151 0.000000
C384  C     C_R   0.989958 0.069062 0.892859 0.000000
C385  C     C_R   0.046337 0.093413 0.894205 0.000000
H217  H     H_    0.056939 0.966774 0.885697 0.000000
H218  H     H_    0.956936 0.925502 0.880511 0.000000
H219  H     H_    0.869973 0.057475 0.882028 0.000000
H220  H     H_    0.071327 0.139890 0.894134 0.000000
Br56  Br    Br    0.877927 0.071226 0.040932 0.000000
C386  C     C_R   0.822507 0.995239 0.021469 0.000000
C387  C     C_R   0.774741 0.965581 0.044242 0.000000
C388  C     C_R   0.736326 0.908069 0.030524 0.000000
C389  C     C_R   0.745820 0.884092 0.991787 0.000000
N111  N     N_R   0.717491 0.829307 0.971389 0.000000
C390  C     C_R   0.747845 0.832874 0.934712 0.000000
N112  N     N_R   0.789406 0.887612 0.930187 0.000000
C391  C     C_R   0.789356 0.917503 0.967478 0.000000
C392  C     C_R   0.829392 0.971486 0.981982 0.000000
H221  H     H_    0.767986 0.988510 0.072582 0.000000
H222  H     H_    0.700353 0.883885 0.049102 0.000000
H223  H     H_    0.742295 0.796301 0.912151 0.000000
H224  H     H_    0.865396 0.994912 0.963519 0.000000
Br57  Br    Br    0.087956 0.838893 0.933232 0.000000
C393  C     C_R   0.108656 0.777368 0.922319 0.000000
C394  C     C_R   0.154836 0.780960 0.943867 0.000000
C395  C     C_R   0.170712 0.736777 0.936514 0.000000
C396  C     C_R   0.139537 0.690052 0.907170 0.000000
N113  N     N_R   0.147643 0.643028 0.894417 0.000000
C397  C     C_R   0.103084 0.609622 0.866654 0.000000
N114  N     N_R   0.067960 0.633930 0.862411 0.000000
C398  C     C_R   0.093581 0.685845 0.886746 0.000000
C399  C     C_R   0.077172 0.729173 0.893447 0.000000
H225  H     H_    0.178617 0.818692 0.966520 0.000000
H226  H     H_    0.206625 0.739291 0.952920 0.000000
H227  H     H_    0.095425 0.567521 0.850412 0.000000
H228  H     H_    0.040476 0.725357 0.877513 0.000000
Br58  Br    Br    0.920628 0.405003 0.925124 0.000000
C400  C     C_R   0.951784 0.420042 0.869501 0.000000
C401  C     C_R   0.949437 0.374480 0.841246 0.000000
C402  C     C_R   0.968388 0.384235 0.799636 0.000000
C403  C     C_R   0.981033 0.438007 0.785033 0.000000
N115  N     N_R   0.990351 0.455051 0.744171 0.000000
C404  C     C_R   0.996273 0.511539 0.749732 0.000000
N116  N     N_R   0.991806 0.529078 0.792409 0.000000
C405  C     C_R   0.983293 0.482153 0.813246 0.000000
C406  C     C_R   0.975787 0.476023 0.856894 0.000000
H229  H     H_    0.934363 0.331797 0.852658 0.000000
H230  H     H_    0.969884 0.348833 0.779646 0.000000
H231  H     H_    0.003472 0.539246 0.723437 0.000000
H232  H     H_    0.985564 0.512501 0.880804 0.000000
Br59  Br    Br    0.016305 0.673605 0.025690 0.000000
C407  C     C_R   0.958608 0.619823 0.986492 0.000000
C408  C     C_R   0.905250 0.588603 0.000609 0.000000
C409  C     C_R   0.864418 0.548137 0.971899 0.000000
C410  C     C_R   0.878992 0.540431 0.929934 0.000000
N117  N     N_R   0.849607 0.498095 0.898681 0.000000
C411  C     C_R   0.881988 0.512377 0.863335 0.000000
N118  N     N_R   0.931606 0.560517 0.872466 0.000000
C412  C     C_R   0.928931 0.575931 0.914998 0.000000
C413  C     C_R   0.970337 0.614519 0.943144 0.000000
H233  H     H_    0.895878 0.594788 0.034221 0.000000
H234  H     H_    0.823073 0.522342 0.982605 0.000000
H235  H     H_    0.871160 0.486155 0.832326 0.000000
H236  H     H_    0.011447 0.637955 0.933074 0.000000
Br60  Br    Br    0.055943 0.930607 0.293768 0.000000
C414  C     C_R   0.022080 0.981270 0.293857 0.000000
C415  C     C_R   0.054294 0.040762 0.288829 0.000000
C416  C     C_R   0.030468 0.078148 0.287234 0.000000
C417  C     C_R   0.974341 0.054392 0.290956 0.000000
N119  N     N_R   0.942410 0.081710 0.288004 0.000000
C418  C     C_R   0.890533 0.037116 0.294554 0.000000
N120  N     N_R   0.889306 0.983343 0.299313 0.000000
C419  C     C_R   0.942839 0.996100 0.296692 0.000000
C420  C     C_R   0.965570 0.958329 0.298048 0.000000
H237  H     H_    0.098272 0.057776 0.285405 0.000000
H238  H     H_    0.055038 0.124047 0.282217 0.000000
H239  H     H_    0.853892 0.043244 0.295564 0.000000
H240  H     H_    0.940212 0.912142 0.301108 0.000000
Br61  Br    Br    0.847630 0.024612 0.145749 0.000000
C421  C     C_R   0.793602 0.958875 0.171866 0.000000
C422  C     C_R   0.741757 0.925891 0.152289 0.000000
C423  C     C_R   0.707612 0.871183 0.165026 0.000000
C424  C     C_R   0.725206 0.852905 0.199066 0.000000
N121  N     N_R   0.701246 0.800325 0.215094 0.000000
C425  C     C_R   0.732475 0.808305 0.251571 0.000000
N122  N     N_R   0.774541 0.864216 0.258518 0.000000
C426  C     C_R   0.770408 0.890006 0.223611 0.000000
C427  C     C_R   0.807280 0.942582 0.209545 0.000000
H241  H     H_    0.728106 0.941155 0.125959 0.000000
H242  H     H_    0.668845 0.844444 0.148487 0.000000
H243  H     H_    0.723836 0.774039 0.272852 0.000000
H244  H     H_    0.847550 0.967756 0.224245 0.000000
Br62  Br    Br    0.875943 0.606093 0.545067 0.000000
C428  C     C_R   0.906155 0.558808 0.517686 0.000000
C429  C     C_R   0.901870 0.511032 0.538275 0.000000
C430  C     C_R   0.926760 0.477957 0.521297 0.000000
C431  C     C_R   0.955627 0.494375 0.483998 0.000000
N123  N     N_R   0.985057 0.470352 0.463548 0.000000
C432  C     C_R   0.000863 0.499036 0.426520 0.000000
N124  N     N_R   0.982901 0.540684 0.424029 0.000000
C433  C     C_R   0.955777 0.537676 0.461449 0.000000
C434  C     C_R   0.932369 0.572176 0.478345 0.000000
H245  H     H_    0.879817 0.500389 0.568228 0.000000
H246  H     H_    0.922449 0.440071 0.536701 0.000000
H247  H     H_    0.024422 0.489418 0.401519 0.000000
H248  H     H_    0.936189 0.609928 0.463210 0.000000
Br63  Br    Br    0.851613 0.663687 0.229552 0.000000
C435  C     C_R   0.886794 0.620444 0.249093 0.000000
C436  C     C_R   0.940684 0.652371 0.264848 0.000000
C437  C     C_R   0.964306 0.626273 0.288686 0.000000
C438  C     C_R   0.932448 0.568762 0.296308 0.000000
N125  N     N_R   0.941422 0.540445 0.327343 0.000000
C439  C     C_R   0.895726 0.487236 0.324834 0.000000
N126  N     N_R   0.858616 0.482472 0.293462 0.000000
C440  C     C_R   0.882100 0.535361 0.277158 0.000000
C441  C     C_R   0.857636 0.560185 0.252756 0.000000
H249  H     H_    0.962739 0.699012 0.261354 0.000000
H250  H     H_    0.005059 0.651486 0.303260 0.000000
H251  H     H_    0.887655 0.454783 0.347677 0.000000
H252  H     H_    0.815467 0.535576 0.240943 0.000000
Br64  Br    Br    0.159492 0.712441 0.511100 0.000000
C442  C     C_R   0.159802 0.686267 0.451398 0.000000
C443  C     C_R   0.208939 0.693161 0.432863 0.000000
C444  C     C_R   0.210243 0.675002 0.389390 0.000000
C445  C     C_R   0.161844 0.651715 0.365214 0.000000
N127  N     N_R   0.152869 0.630089 0.323100 0.000000
C446  C     C_R   0.096696 0.608149 0.317540 0.000000
N128  N     N_R   0.071429 0.616262 0.354628 0.000000
C447  C     C_R   0.113642 0.643673 0.383730 0.000000
C448  C     C_R   0.111064 0.660247 0.426873 0.000000
H253  H     H_    0.246462 0.712743 0.452668 0.000000
H254  H     H_    0.248072 0.678981 0.375459 0.000000
H255  H     H_    0.074273 0.583505 0.287953 0.000000
H256  H     H_    0.072552 0.653993 0.441086 0.000000
Br65  Br    Br    0.013306 0.044930 0.054856 0.000000
C449  C     C_R   0.002546 0.086166 0.105559 0.000000
C450  C     C_R   0.996469 0.063399 0.145547 0.000000
C451  C     C_R   0.987647 0.092419 0.182376 0.000000
C452  C     C_R   0.986001 0.144561 0.178631 0.000000
N129  N     N_R   0.977985 0.180035 0.209904 0.000000
C453  C     C_R   0.978650 0.224023 0.186858 0.000000
N130  N     N_R   0.986970 0.216747 0.143056 0.000000
C454  C     C_R   0.991421 0.166444 0.139193 0.000000
C455  C     C_R   0.999560 0.138009 0.102086 0.000000
H257  H     H_    0.997746 0.022189 0.147876 0.000000
H258  H     H_    0.980875 0.073118 0.212336 0.000000
H259  H     H_    0.973579 0.260951 0.201748 0.000000
H260  H     H_    0.002270 0.154024 0.070777 0.000000
Br66  Br    Br    0.195058 0.319350 0.201586 0.000000
C456  C     C_R   0.164571 0.364280 0.177098 0.000000
C457  C     C_R   0.196640 0.423703 0.172691 0.000000
C458  C     C_R   0.175768 0.456590 0.153618 0.000000
C459  C     C_R   0.124524 0.426561 0.133919 0.000000
N131  N     N_R   0.101664 0.445005 0.103914 0.000000
C460  C     C_R   0.060516 0.393585 0.085565 0.000000
N132  N     N_R   0.053211 0.346034 0.106262 0.000000
C461  C     C_R   0.094894 0.367437 0.135590 0.000000
C462  C     C_R   0.112091 0.335673 0.159246 0.000000
H261  H     H_    0.239467 0.443547 0.181323 0.000000
H262  H     H_    0.202094 0.502322 0.149315 0.000000
H263  H     H_    0.037998 0.389317 0.056066 0.000000
H264  H     H_    0.088953 0.288707 0.159538 0.000000
Br67  Br    Br    0.917349 0.662943 0.132069 0.000000
C463  C     C_R   0.956606 0.617674 0.126736 0.000000
C464  C     C_R   0.013748 0.646059 0.131949 0.000000
C465  C     C_R   0.044336 0.616028 0.122150 0.000000
C466  C     C_R   0.016221 0.557782 0.107272 0.000000
N133  N     N_R   0.036776 0.520246 0.094278 0.000000
C467  C     C_R   0.990159 0.468965 0.084199 0.000000
N134  N     N_R   0.942358 0.472214 0.090991 0.000000
C468  C     C_R   0.959835 0.529178 0.104794 0.000000
C469  C     C_R   0.928658 0.557837 0.114474 0.000000
H265  H     H_    0.034669 0.692709 0.141791 0.000000
H266  H     H_    0.088570 0.638388 0.124748 0.000000
H267  H     H_    0.989962 0.429848 0.070872 0.000000
H268  H     H_    0.884285 0.535335 0.110471 0.000000
Br68  Br    Br    0.745166 0.093534 0.059210 0.000000
C470  C     C_R   0.801296 0.167169 0.043971 0.000000
C471  C     C_R   0.787311 0.202197 0.020160 0.000000
C472  C     C_R   0.821982 0.261794 0.021326 0.000000
C473  C     C_R   0.868501 0.283913 0.047644 0.000000
N135  N     N_R   0.891963 0.336014 0.072312 0.000000
C474  C     C_R   0.929254 0.330848 0.098045 0.000000
N136  N     N_R   0.929486 0.278346 0.090316 0.000000
C475  C     C_R   0.888116 0.247944 0.061413 0.000000
C476  C     C_R   0.853701 0.189141 0.062285 0.000000
H269  H     H_    0.746794 0.184439 0.004905 0.000000
H270  H     H_    0.810075 0.289750 0.005298 0.000000
H271  H     H_    0.955628 0.364527 0.122459 0.000000
H272  H     H_    0.863534 0.164100 0.083899 0.000000

loop_
_geom_bond_atom_site_label_1
_geom_bond_atom_site_label_2
_geom_bond_distance
_geom_bond_site_symmetry_2
_ccdc_geom_bond_type
Zn1   N1    2.079 .      S
Zn1   N81   2.118 .      S
Zn1   N94   1.944 .      S
Zn1   N113  2.048 .      S
Zn2   N4    2.019 1_655  S
Zn2   N10   1.990 .      S
Zn2   N96   2.083 1_655  S
Zn2   N110  2.036 .      S
Zn3   N6    2.094 .      S
Zn3   N12   2.037 .      S
Zn3   N97   2.045 1_655  S
Zn3   N115  2.016 .      S
Zn4   N8    2.006 .      S
Zn4   N18   2.050 .      S
Zn4   N90   2.035 .      S
Zn4   N126  1.956 .      S
Zn5   N9    1.967 .      S
Zn5   N11   2.033 .      S
Zn5   N13   2.018 .      S
Zn5   N78   2.112 .      S
Zn6   N15   1.996 .      S
Zn6   N17   2.045 .      S
Zn6   N20   1.934 .      S
Zn6   N74   2.039 .      S
Zn7   N14   2.048 .      S
Zn7   N21   2.008 .      S
Zn7   N85   2.054 .      S
Zn7   N117  1.931 .      S
Zn8   N24   2.113 1_556  S
Zn8   N84   2.056 .      S
Zn8   N88   2.031 .      S
Zn8   N111  2.060 .      S
Zn9   N23   2.135 .      S
Zn9   N92   2.003 .      S
Zn9   N105  2.037 .      S
Zn9   N121  1.956 .      S
Zn10  N26   2.048 .      S
Zn10  N103  1.941 .      S
Zn10  N108  2.109 .      S
Zn10  N127  2.024 .      S
Zn11  N27   1.962 .      S
Zn11  N29   1.998 .      S
Zn11  N31   2.049 .      S
Zn11  N34   2.079 .      S
Zn12  N28   2.001 .      S
Zn12  N35   2.053 .      S
Zn12  N37   1.985 .      S
Zn12  N40   1.971 .      S
Zn13  N30   1.984 .      S
Zn13  N39   1.949 .      S
Zn13  N42   1.981 .      S
Zn13  N44   2.006 .      S
Zn14  N32   2.053 .      S
Zn14  N46   2.080 .      S
Zn14  N47   2.150 .      S
Zn14  N50   1.964 .      S
Zn15  N33   2.032 .      S
Zn15  N52   1.964 .      S
Zn15  N54   2.056 .      S
Zn15  N56   2.103 .      S
Zn16  N41   2.039 .      S
Zn16  N57   2.037 .      S
Zn16  N59   2.019 .      S
Zn16  N62   1.932 .      S
Zn17  N43   1.977 .      S
Zn17  N64   1.907 .      S
Zn17  N66   1.957 .      S
Zn17  N68   2.049 .      S
Zn18  N36   2.059 .      S
Zn18  N70   1.959 .      S
Zn18  N72   2.077 .      S
Zn18  N73   2.075 1_565  S
Zn19  N38   1.995 .      S
Zn19  N75   2.065 .      S
Zn19  N77   2.070 1_565  S
Zn19  N79   1.948 .      S
Zn20  N51   1.945 .      S
Zn20  N76   2.056 .      S
Zn20  N82   2.072 .      S
Zn20  N83   1.958 .      S
Zn21  N53   2.058 .      S
Zn21  N63   1.980 .      S
Zn21  N86   2.007 .      S
Zn21  N87   1.962 .      S
Zn22  N45   2.056 .      S
Zn22  N61   1.928 .      S
Zn22  N89   1.994 .      S
Zn22  N91   2.030 .      S
Zn23  N55   2.097 .      S
Zn23  N93   1.948 .      S
Zn23  N95   2.099 .      S
Zn23  N98   1.989 .      S
Zn24  N48   2.093 .      S
Zn24  N100  2.034 .      S
Zn24  N102  2.073 .      S
Zn24  N104  1.999 .      S
Zn25  N49   2.005 .      S
Zn25  N71   2.097 .      S
Zn25  N106  2.043 .      S
Zn25  N107  2.080 .      S
Zn26  N65   1.947 .      S
Zn26  N80   1.934 .      S
Zn26  N109  2.042 .      S
Zn26  N112  1.992 .      S
Zn27  N67   1.980 .      S
Zn27  N114  2.037 1_655  S
Zn27  N116  1.981 .      S
Zn27  N118  1.978 .      S
Zn28  N58   2.036 .      S
Zn28  N69   1.929 .      S
Zn28  N120  2.085 .      S
Zn28  N122  1.978 .      S
Zn29  N60   2.039 .      S
Zn29  N124  1.997 .      S
Zn29  N125  1.930 .      S
Zn29  N128  2.024 1_655  S
Zn30  N5    2.131 .      S
Zn30  N16   1.974 .      S
Zn30  N99   2.028 1_655  S
Zn30  N123  1.971 .      S
Zn31  N19   1.949 .      S
Zn31  N101  2.059 1_655  S
Zn31  N119  2.095 .      S
Zn31  N129  2.049 .      S
Zn32  N3    2.008 1_655  S
Zn32  N130  2.024 .      S
Zn32  N132  1.936 1_655  S
Zn32  N136  1.907 .      S
Zn33  N2    2.099 .      S
Zn33  N25   2.020 .      S
Zn33  N131  2.006 .      S
Zn33  N133  2.027 .      S
Zn34  N7    2.024 .      S
Zn34  N22   2.032 .      S
Zn34  N134  1.995 .      S
Zn34  N135  1.955 .      S
Br1   C1    1.906 .      S
C2    H1    1.081 .      S
C3    H2    1.074 .      S
C5    H3    1.081 .      S
C7    H4    1.063 .      S
Br2   C8    1.901 .      S
C9    H5    1.081 .      S
C10   H6    1.073 .      S
N3    Zn32  2.008 1_455  S
C12   H7    1.078 .      S
N4    Zn2   2.019 1_455  S
C14   H8    1.072 .      S
Br3   C15   1.906 .      S
C16   H9    1.080 .      S
C17   H10   1.080 .      S
C19   H11   1.075 .      S
C21   H12   1.078 .      S
Br4   C22   1.900 .      S
C23   H13   1.080 .      S
C24   H14   1.052 .      S
C26   H15   1.081 .      S
C28   H16   1.053 .      S
Br5   C29   1.890 .      S
C30   H17   1.081 .      S
C31   H18   1.074 .      S
C33   H19   1.081 .      S
C35   H20   1.079 .      S
Br6   C36   1.904 1_455  S
C36   Br6   1.904 1_655  S
C37   H21   1.076 .      S
C38   H22   1.077 .      S
C40   H23   1.081 .      S
C42   H24   1.080 1_655  S
H24   C42   1.080 1_455  S
Br7   C43   1.903 .      S
C44   H25   1.081 .      S
C45   H26   1.080 .      S
C47   H27   1.075 .      S
C49   H28   1.076 .      S
Br8   C50   1.898 .      S
C51   H29   1.079 .      S
C52   H30   1.064 .      S
C54   H31   1.081 .      S
C56   H32   1.074 .      S
Br9   C57   1.903 .      S
C58   H33   1.081 .      S
C59   H34   1.067 .      S
C61   H35   1.080 .      S
C63   H36   1.069 .      S
Br10  C64   1.906 .      S
C65   H37   1.077 .      S
C66   H38   1.075 .      S
C68   H39   1.081 .      S
C70   H40   1.074 .      S
Br11  C71   1.907 .      S
C72   H41   1.081 .      S
C73   H42   1.081 .      S
C75   H43   1.078 .      S
C77   H44   1.065 .      S
Br12  C78   1.907 .      S
C79   H45   1.081 .      S
C80   H46   1.081 .      S
C82   H47   1.077 .      S
N24   Zn8   2.113 1_554  S
C84   H48   1.079 1_554  S
H48   C84   1.079 1_556  S
Br13  C85   1.905 .      S
C86   H49   1.081 .      S
C87   H50   1.071 .      S
C89   H51   1.081 .      S
C91   H52   1.055 .      S
Br14  C92   1.900 .      S
C93   H53   1.077 .      S
C94   H54   1.081 .      S
C96   H55   1.059 .      S
C98   H56   1.075 .      S
Br15  C99   1.900 .      S
C100  H57   1.081 .      S
C101  H58   1.079 .      S
C103  H59   1.078 .      S
C105  H60   1.081 .      S
Br16  C106  1.904 .      S
C107  H61   1.081 .      S
C108  H62   1.064 .      S
C110  H63   1.080 .      S
C112  H64   1.071 .      S
Br17  C113  1.901 .      S
C114  H65   1.081 .      S
C115  H66   1.073 .      S
C117  H67   1.081 .      S
C119  H68   1.064 .      S
Br18  C120  1.907 .      S
C121  H69   1.081 .      S
C122  H70   1.069 .      S
C124  H71   1.081 .      S
C126  H72   1.065 .      S
Br19  C127  1.905 .      S
C128  H73   1.081 .      S
C129  H74   1.071 .      S
C131  H75   1.080 .      S
C133  H76   1.068 .      S
Br20  C134  1.894 1_545  S
C134  Br20  1.894 1_565  S
C135  H77   1.081 .      S
C136  H78   1.076 .      S
C138  H79   1.072 .      S
C140  H80   1.073 .      S
Br21  C141  1.902 1_455  S
C141  Br21  1.902 1_655  S
C142  H81   1.081 1_655  S
C143  H82   1.060 .      S
C145  H83   1.074 .      S
C147  H84   1.071 .      S
H81   C142  1.081 1_455  S
Br22  C148  1.907 .      S
C149  H85   1.081 .      S
C150  H86   1.079 .      S
C152  H87   1.080 .      S
C154  H88   1.064 .      S
Br23  C155  1.905 .      S
C156  H89   1.075 .      S
C157  H90   1.064 .      S
C159  H91   1.080 .      S
C161  H92   1.063 .      S
Br24  C162  1.906 .      S
C163  H93   1.081 .      S
C164  H94   1.074 .      S
C166  H95   1.072 .      S
C168  H96   1.072 .      S
Br25  C169  1.909 .      S
C170  H97   1.080 .      S
C171  H98   1.059 .      S
C173  H99   1.080 .      S
C175  H100  1.078 .      S
Br26  C176  1.905 .      S
C177  H101  1.081 .      S
C178  H102  1.077 .      S
C180  H103  1.081 .      S
C182  H104  1.076 .      S
Br27  C183  1.905 .      S
C184  H105  1.080 .      S
C185  H106  1.080 .      S
C187  H107  1.075 .      S
C189  H108  1.073 .      S
Br28  C190  1.906 .      S
C191  H109  1.077 .      S
C192  H110  1.073 .      S
C194  H111  1.081 .      S
C196  H112  1.069 .      S
Br29  C197  1.898 .      S
C198  H113  1.081 .      S
C199  H114  1.054 .      S
C201  H115  1.078 .      S
C203  H116  1.068 .      S
Br30  C204  1.900 .      S
C205  H117  1.080 .      S
C206  H118  1.077 .      S
C208  H119  1.081 .      S
C210  H120  1.073 .      S
Br31  C211  1.903 .      S
C212  H121  1.081 .      S
C213  H122  1.067 .      S
C215  H123  1.081 .      S
C217  H124  1.079 .      S
Br32  C218  1.908 .      S
C219  H125  1.074 .      S
C220  H126  1.077 .      S
C222  H127  1.080 .      S
C224  H128  1.079 .      S
Br33  C225  1.887 .      S
C226  H129  1.081 .      S
C227  H130  1.078 .      S
C229  H131  1.081 .      S
C231  H132  1.078 .      S
Br34  C232  1.906 .      S
C233  H133  1.081 .      S
C234  H134  1.080 .      S
C236  H135  1.081 .      S
C238  H136  1.063 1_455  S
H136  C238  1.063 1_655  S
Br35  C239  1.895 .      S
C240  H137  1.080 .      S
C241  H138  1.077 .      S
C243  H139  1.079 .      S
C245  H140  1.080 .      S
Br36  C246  1.907 .      S
C247  H141  1.081 .      S
C248  H142  1.061 .      S
C250  H143  1.079 .      S
C252  H144  1.069 .      S
Br37  C253  1.905 .      S
C254  H145  1.081 .      S
C255  H146  1.062 .      S
N73   Zn18  2.075 1_545  S
C257  H147  1.080 .      S
C259  H148  1.080 .      S
Br38  C260  1.906 1_554  S
C260  Br38  1.906 1_556  S
C261  H149  1.081 1_565  S
C262  H150  1.080 1_565  S
C264  H151  1.080 .      S
C266  H152  1.080 .      S
H149  C261  1.081 1_545  S
H150  C262  1.080 1_545  S
Br39  C267  1.906 .      S
C268  H153  1.081 .      S
C269  H154  1.073 .      S
N77   Zn19  2.070 1_545  S
C271  H155  1.076 .      S
C273  H156  1.061 .      S
Br40  C274  1.892 1_545  S
C274  Br40  1.892 1_565  S
C275  H157  1.081 .      S
C276  H158  1.079 .      S
C278  H159  1.081 .      S
C280  H160  1.081 .      S
Br41  C281  1.906 .      S
C282  H161  1.081 .      S
C283  H162  1.067 .      S
C285  H163  1.078 .      S
C287  H164  1.077 .      S
Br42  C288  1.903 .      S
C289  H165  1.081 .      S
C290  H166  1.069 .      S
C292  H167  1.058 .      S
C294  H168  1.069 .      S
Br43  C295  1.900 1_554  S
C295  Br43  1.900 1_556  S
C296  H169  1.081 .      S
C297  H170  1.065 .      S
C299  H171  1.076 .      S
C301  H172  1.081 .      S
Br44  C302  1.890 .      S
C303  H173  1.081 .      S
C304  H174  1.072 .      S
C306  H175  1.081 .      S
C308  H176  1.073 .      S
Br45  C309  1.899 .      S
C310  H177  1.081 .      S
C311  H178  1.081 .      S
C313  H179  1.080 .      S
C315  H180  1.071 .      S
Br46  C316  1.906 .      S
C317  H181  1.081 .      S
C318  H182  1.068 .      S
C320  H183  1.079 .      S
C322  H184  1.072 .      S
Br47  C323  1.880 .      S
C324  H185  1.081 .      S
C325  H186  1.068 .      S
C327  H187  1.081 .      S
C329  H188  1.066 .      S
Br48  C330  1.904 .      S
C331  H189  1.081 .      S
C332  H190  1.081 .      S
C334  H191  1.077 .      S
N96   Zn2   2.083 1_455  S
C336  H192  1.077 .      S
Br49  C337  1.900 .      S
C338  H193  1.080 .      S
C339  H194  1.066 .      S
N97   Zn3   2.045 1_455  S
C341  H195  1.063 .      S
C343  H196  1.072 .      S
Br50  C344  1.892 .      S
C345  H197  1.080 .      S
C346  H198  1.073 .      S
N99   Zn30  2.028 1_455  S
C348  H199  1.080 .      S
C350  H200  1.075 .      S
Br51  C351  1.904 .      S
C352  H201  1.080 .      S
C353  H202  1.074 1_455  S
N101  Zn31  2.059 1_455  S
C355  H203  1.081 .      S
C357  H204  1.074 .      S
H202  C353  1.074 1_655  S
Br52  C358  1.904 .      S
C359  H205  1.081 .      S
C360  H206  1.079 .      S
C362  H207  1.081 .      S
C364  H208  1.065 .      S
Br53  C365  1.904 .      S
C366  H209  1.081 .      S
C367  H210  1.074 .      S
C369  H211  1.077 .      S
C371  H212  1.071 .      S
Br54  C372  1.902 .      S
C373  H213  1.081 .      S
C374  H214  1.080 .      S
C376  H215  1.077 .      S
C378  H216  1.081 .      S
Br55  C379  1.905 .      S
C380  H217  1.081 .      S
C381  H218  1.065 .      S
C383  H219  1.077 .      S
C385  H220  1.070 .      S
Br56  C386  1.892 1_545  S
C386  Br56  1.892 1_565  S
C387  H221  1.072 .      S
C388  H222  1.081 .      S
C390  H223  1.071 .      S
C392  H224  1.075 .      S
Br57  C393  1.906 .      S
C394  H225  1.081 .      S
C395  H226  1.081 .      S
C397  H227  1.079 .      S
N114  Zn27  2.037 1_455  S
C399  H228  1.080 .      S
Br58  C400  1.894 .      S
C401  H229  1.069 .      S
C402  H230  1.068 .      S
C404  H231  1.081 1_655  S
C406  H232  1.072 .      S
H231  C404  1.081 1_455  S
Br59  C407  1.904 1_454  S
C407  Br59  1.904 1_656  S
C408  H233  1.080 .      S
C409  H234  1.080 .      S
C411  H235  1.081 .      S
C413  H236  1.060 1_655  S
H236  C413  1.060 1_455  S
Br60  C414  1.905 .      S
C415  H237  1.081 .      S
C416  H238  1.081 .      S
C418  H239  1.079 .      S
C420  H240  1.077 .      S
Br61  C421  1.898 1_545  S
C421  Br61  1.898 1_565  S
C422  H241  1.070 .      S
C423  H242  1.068 .      S
C425  H243  1.079 .      S
C427  H244  1.070 .      S
Br62  C428  1.891 .      S
C429  H245  1.081 .      S
C430  H246  1.075 .      S
C432  H247  1.080 .      S
C434  H248  1.072 .      S
Br63  C435  1.900 .      S
C436  H249  1.081 .      S
C437  H250  1.079 1_655  S
C439  H251  1.080 .      S
C441  H252  1.079 .      S
H250  C437  1.079 1_455  S
Br64  C442  1.905 .      S
C443  H253  1.081 .      S
C444  H254  1.077 .      S
C446  H255  1.081 .      S
N128  Zn29  2.024 1_455  S
C448  H256  1.081 .      S
Br65  C449  1.906 .      S
C450  H257  1.081 .      S
C451  H258  1.060 .      S
C453  H259  1.081 .      S
C455  H260  1.070 1_655  S
H260  C455  1.070 1_455  S
Br66  C456  1.903 .      S
C457  H261  1.067 .      S
C458  H262  1.079 .      S
C460  H263  1.073 .      S
N132  Zn32  1.936 1_455  S
C462  H264  1.076 .      S
Br67  C463  1.900 .      S
C464  H265  1.081 .      S
C465  H266  1.075 .      S
C467  H267  1.048 .      S
C469  H268  1.081 .      S
Br68  C470  1.905 .      S
C471  H269  1.081 .      S
C472  H270  1.067 .      S
C474  H271  1.080 .      S
C476  H272  1.078 .      S
C1    C2    1.387 1_554  A
C1    C7    1.383 .      A
C2    C1    1.387 1_556  A
C2    C3    1.382 .      A
C3    C4    1.372 .      A
C4    N1    1.342 .      A
C4    C6    1.362 1_556  A
N1    C5    1.388 1_556  A
C5    N1    1.388 1_554  A
C5    N2    1.386 .      A
N2    C6    1.351 .      A
C6    C4    1.362 1_554  A
C6    C7    1.370 .      A
C8    C9    1.387 1_556  A
C8    C14   1.386 .      A
C9    C8    1.387 1_554  A
C9    C10   1.379 .      A
C10   C11   1.369 .      A
C11   N3    1.341 .      A
C11   C13   1.357 1_554  A
N3    C12   1.374 1_454  A
C12   N3    1.374 1_656  A
C12   N4    1.374 1_655  A
N4    C12   1.374 1_455  A
N4    C13   1.350 .      A
C13   C11   1.357 1_556  A
C13   C14   1.374 .      A
C15   C16   1.391 .      A
C15   C21   1.385 .      A
C16   C17   1.385 .      A
C17   C18   1.372 .      A
C18   N5    1.347 1_455  A
C18   C20   1.369 .      A
N5    C18   1.347 1_655  A
N5    C19   1.394 .      A
C19   N6    1.382 .      A
N6    C20   1.348 1_655  A
C20   N6    1.348 1_455  A
C20   C21   1.372 .      A
C22   C23   1.378 .      A
C22   C28   1.374 .      A
C23   C24   1.379 .      A
C24   C25   1.374 .      A
C25   N7    1.353 .      A
C25   C27   1.349 .      A
N7    C26   1.374 .      A
C26   N8    1.375 .      A
N8    C27   1.343 .      A
C27   C28   1.368 .      A
C29   C30   1.382 .      A
C29   C35   1.393 .      A
C30   C31   1.369 .      A
C31   C32   1.364 .      A
C32   N9    1.332 .      A
C32   C34   1.354 .      A
N9    C33   1.370 .      A
C33   N10   1.368 .      A
N10   C34   1.353 .      A
C34   C35   1.377 .      A
C36   C37   1.390 .      A
C36   C42   1.383 .      A
C37   C38   1.383 .      A
C38   C39   1.370 .      A
C39   N11   1.346 .      A
C39   C41   1.364 .      A
N11   C40   1.376 .      A
C40   N12   1.379 .      A
N12   C41   1.343 .      A
C41   C42   1.371 .      A
C43   C44   1.387 .      A
C43   C49   1.392 .      A
C44   C45   1.377 .      A
C45   C46   1.370 .      A
C46   N13   1.340 .      A
C46   C48   1.365 .      A
N13   C47   1.372 .      A
C47   N14   1.377 .      A
N14   C48   1.353 .      A
C48   C49   1.376 .      A
C50   C51   1.383 .      A
C50   C56   1.379 .      A
C51   C52   1.382 .      A
C52   C53   1.374 .      A
C53   N15   1.351 .      A
C53   C55   1.355 .      A
N15   C54   1.369 .      A
C54   N16   1.370 .      A
N16   C55   1.338 .      A
C55   C56   1.366 .      A
C57   C58   1.382 .      A
C57   C63   1.382 .      A
C58   C59   1.379 .      A
C59   C60   1.376 .      A
C60   N17   1.351 .      A
C60   C62   1.363 .      A
N17   C61   1.376 .      A
C61   N18   1.377 .      A
N18   C62   1.351 .      A
C62   C63   1.378 .      A
C64   C65   1.387 .      A
C64   C70   1.382 .      A
C65   C66   1.386 .      A
C66   C67   1.366 .      A
C67   N19   1.343 .      A
C67   C69   1.350 .      A
N19   C68   1.364 .      A
C68   N20   1.365 .      A
N20   C69   1.340 .      A
C69   C70   1.371 .      A
C71   C72   1.389 1_554  A
C71   C77   1.387 .      A
C72   C71   1.389 1_556  A
C72   C73   1.382 .      A
C73   C74   1.372 .      A
C74   N21   1.337 .      A
C74   C76   1.358 1_556  A
N21   C75   1.376 .      A
C75   N22   1.369 1_556  A
N22   C75   1.369 1_554  A
N22   C76   1.355 .      A
C76   C74   1.358 1_554  A
C76   C77   1.371 .      A
C78   C79   1.392 .      A
C78   C84   1.385 .      A
C79   C80   1.385 .      A
C80   C81   1.371 .      A
C81   N23   1.346 .      A
C81   C83   1.371 .      A
N23   C82   1.395 .      A
C82   N24   1.388 .      A
N24   C83   1.349 .      A
C83   C84   1.373 .      A
C85   C86   1.385 .      A
C85   C91   1.382 .      A
C86   C87   1.381 .      A
C87   C88   1.373 .      A
C88   N25   1.342 .      A
C88   C90   1.358 .      A
N25   C89   1.378 .      A
C89   N26   1.375 .      A
N26   C90   1.352 .      A
C90   C91   1.368 .      A
C92   C93   1.387 .      A
C92   C98   1.388 .      A
C93   C94   1.380 .      A
C94   C95   1.368 .      A
C95   N27   1.337 .      A
C95   C97   1.365 .      A
N27   C96   1.354 .      A
C96   N28   1.363 .      A
N28   C97   1.353 .      A
C97   C98   1.374 .      A
C99   C100  1.390 .      A
C99   C105  1.387 .      A
C100  C101  1.382 .      A
C101  C102  1.372 .      A
C102  N29   1.348 .      A
C102  C104  1.362 .      A
N29   C103  1.367 .      A
C103  N30   1.364 .      A
N30   C104  1.343 .      A
C104  C105  1.371 .      A
C106  C107  1.386 .      A
C106  C112  1.385 .      A
C107  C108  1.380 .      A
C108  C109  1.369 .      A
C109  N31   1.345 .      A
C109  C111  1.355 .      A
N31   C110  1.379 .      A
C110  N32   1.379 .      A
N32   C111  1.345 .      A
C111  C112  1.367 .      A
C113  C114  1.384 .      A
C113  C119  1.386 .      A
C114  C115  1.377 .      A
C115  C116  1.372 .      A
C116  N33   1.338 .      A
C116  C118  1.363 .      A
N33   C117  1.380 .      A
C117  N34   1.379 .      A
N34   C118  1.358 .      A
C118  C119  1.373 .      A
C120  C121  1.383 .      A
C120  C126  1.384 .      A
C121  C122  1.380 1_545  A
C122  C121  1.380 1_565  A
C122  C123  1.377 .      A
C123  N35   1.350 .      A
C123  C125  1.361 .      A
N35   C124  1.379 .      A
C124  N36   1.380 .      A
N36   C125  1.350 .      A
C125  C126  1.373 1_565  A
C126  C125  1.373 1_545  A
C127  C128  1.389 .      A
C127  C133  1.384 .      A
C128  C129  1.383 .      A
C129  C130  1.369 .      A
C130  N37   1.344 .      A
C130  C132  1.353 .      A
N37   C131  1.368 .      A
C131  N38   1.372 .      A
N38   C132  1.344 .      A
C132  C133  1.369 .      A
C134  C135  1.388 .      A
C134  C140  1.378 .      A
C135  C136  1.383 .      A
C136  C137  1.376 .      A
C137  N39   1.348 .      A
C137  C139  1.356 .      A
N39   C138  1.356 .      A
C138  N40   1.360 .      A
N40   C139  1.341 .      A
C139  C140  1.366 .      A
C141  C142  1.384 .      A
C141  C147  1.380 .      A
C142  C143  1.381 .      A
C143  C144  1.371 .      A
C144  N41   1.351 .      A
C144  C146  1.358 .      A
N41   C145  1.378 .      A
C145  N42   1.361 .      A
N42   C146  1.344 .      A
C146  C147  1.374 .      A
C148  C149  1.389 .      A
C148  C154  1.380 .      A
C149  C150  1.383 .      A
C150  C151  1.373 .      A
C151  N43   1.343 .      A
C151  C153  1.351 .      A
N43   C152  1.372 .      A
C152  N44   1.370 .      A
N44   C153  1.348 .      A
C153  C154  1.367 .      A
C155  C156  1.377 .      A
C155  C161  1.378 .      A
C156  C157  1.376 .      A
C157  C158  1.376 .      A
C158  N45   1.348 .      A
C158  C160  1.361 .      A
N45   C159  1.380 .      A
C159  N46   1.382 .      A
N46   C160  1.357 .      A
C160  C161  1.377 .      A
C162  C163  1.385 .      A
C162  C168  1.381 .      A
C163  C164  1.383 .      A
C164  C165  1.370 .      A
C165  N47   1.353 .      A
C165  C167  1.368 .      A
N47   C166  1.391 .      A
C166  N48   1.383 .      A
N48   C167  1.346 .      A
C167  C168  1.377 .      A
C169  C170  1.385 .      A
C169  C175  1.379 .      A
C170  C171  1.383 .      A
C171  C172  1.372 .      A
C172  N49   1.353 .      A
C172  C174  1.350 .      A
N49   C173  1.371 .      A
C173  N50   1.371 .      A
N50   C174  1.337 .      A
C174  C175  1.372 .      A
C176  C177  1.389 .      A
C176  C182  1.386 .      A
C177  C178  1.382 .      A
C178  C179  1.371 .      A
C179  N51   1.339 .      A
C179  C181  1.351 .      A
N51   C180  1.367 .      A
C180  N52   1.368 .      A
N52   C181  1.349 .      A
C181  C182  1.376 .      A
C183  C184  1.390 .      A
C183  C189  1.383 .      A
C184  C185  1.386 .      A
C185  C186  1.371 .      A
C186  N53   1.343 .      A
C186  C188  1.366 .      A
N53   C187  1.384 .      A
C187  N54   1.369 .      A
N54   C188  1.351 .      A
C188  C189  1.371 .      A
C190  C191  1.386 .      A
C190  C196  1.380 .      A
C191  C192  1.382 .      A
C192  C193  1.373 .      A
C193  N55   1.347 .      A
C193  C195  1.368 .      A
N55   C194  1.389 .      A
C194  N56   1.385 .      A
N56   C195  1.350 .      A
C195  C196  1.372 .      A
C197  C198  1.374 .      A
C197  C203  1.383 .      A
C198  C199  1.371 .      A
C199  C200  1.369 .      A
C200  N57   1.343 .      A
C200  C202  1.347 .      A
N57   C201  1.382 .      A
C201  N58   1.382 .      A
N58   C202  1.351 .      A
C202  C203  1.381 .      A
C204  C205  1.389 .      A
C204  C210  1.385 .      A
C205  C206  1.381 1_455  A
C206  C205  1.381 1_655  A
C206  C207  1.371 .      A
C207  N59   1.344 .      A
C207  C209  1.364 .      A
N59   C208  1.373 .      A
C208  N60   1.376 .      A
N60   C209  1.351 .      A
C209  C210  1.372 1_655  A
C210  C209  1.372 1_455  A
C211  C212  1.387 .      A
C211  C217  1.388 .      A
C212  C213  1.380 .      A
C213  C214  1.369 .      A
C214  N61   1.346 .      A
C214  C216  1.352 .      A
N61   C215  1.357 .      A
C215  N62   1.364 .      A
N62   C216  1.342 .      A
C216  C217  1.374 .      A
C218  C219  1.389 .      A
C218  C224  1.376 .      A
C219  C220  1.390 .      A
C220  C221  1.371 .      A
C221  N63   1.351 .      A
C221  C223  1.355 .      A
N63   C222  1.365 .      A
C222  N64   1.356 .      A
N64   C223  1.333 .      A
C223  C224  1.368 .      A
C225  C226  1.387 .      A
C225  C231  1.386 .      A
C226  C227  1.377 .      A
C227  C228  1.372 .      A
C228  N65   1.341 .      A
C228  C230  1.353 .      A
N65   C229  1.363 .      A
C229  N66   1.368 .      A
N66   C230  1.343 .      A
C230  C231  1.370 .      A
C232  C233  1.389 .      A
C232  C238  1.387 .      A
C233  C234  1.382 .      A
C234  C235  1.371 .      A
C235  N67   1.336 1_455  A
C235  C237  1.363 1_455  A
N67   C235  1.336 1_655  A
N67   C236  1.371 .      A
C236  N68   1.373 .      A
N68   C237  1.357 .      A
C237  C235  1.363 1_655  A
C237  C238  1.371 1_655  A
C238  C237  1.371 1_455  A
C239  C240  1.380 .      A
C239  C245  1.403 .      A
C240  C241  1.364 1_545  A
C241  C240  1.364 1_565  A
C241  C242  1.366 .      A
C242  N69   1.330 .      A
C242  C244  1.349 .      A
N69   C243  1.364 .      A
C243  N70   1.362 .      A
N70   C244  1.356 .      A
C244  C245  1.383 1_565  A
C245  C244  1.383 1_545  A
C246  C247  1.383 .      A
C246  C252  1.377 .      A
C247  C248  1.381 .      A
C248  C249  1.375 .      A
C249  N71   1.354 .      A
C249  C251  1.361 .      A
N71   C250  1.386 .      A
C250  N72   1.385 .      A
N72   C251  1.344 .      A
C251  C252  1.369 .      A
C253  C254  1.387 .      A
C253  C259  1.380 .      A
C254  C255  1.385 .      A
C255  C256  1.375 .      A
C256  N73   1.359 .      A
C256  C258  1.363 .      A
N73   C257  1.380 .      A
C257  N74   1.377 .      A
N74   C258  1.342 .      A
C258  C259  1.373 .      A
C260  C261  1.392 .      A
C260  C266  1.385 .      A
C261  C262  1.386 .      A
C262  C263  1.372 .      A
C263  N75   1.346 .      A
C263  C265  1.364 .      A
N75   C264  1.383 .      A
C264  N76   1.380 .      A
N76   C265  1.346 .      A
C265  C266  1.372 .      A
C267  C268  1.383 .      A
C267  C273  1.381 .      A
C268  C269  1.379 .      A
C269  C270  1.376 .      A
C270  N77   1.344 .      A
C270  C272  1.368 .      A
N77   C271  1.385 .      A
C271  N78   1.381 .      A
N78   C272  1.360 .      A
C272  C273  1.377 .      A
C274  C275  1.388 1_565  A
C274  C280  1.385 .      A
C275  C274  1.388 1_545  A
C275  C276  1.380 1_545  A
C276  C275  1.380 1_565  A
C276  C277  1.372 .      A
C277  N79   1.343 .      A
C277  C279  1.353 .      A
N79   C278  1.365 .      A
C278  N80   1.364 .      A
N80   C279  1.341 .      A
C279  C280  1.371 .      A
C281  C282  1.388 .      A
C281  C287  1.382 .      A
C282  C283  1.384 .      A
C283  C284  1.373 .      A
C284  N81   1.356 .      A
C284  C286  1.369 .      A
N81   C285  1.385 .      A
C285  N82   1.385 .      A
N82   C286  1.341 .      A
C286  C287  1.373 .      A
C288  C289  1.383 .      A
C288  C294  1.390 .      A
C289  C290  1.375 1_554  A
C290  C289  1.375 1_556  A
C290  C291  1.370 .      A
C291  N83   1.337 .      A
C291  C293  1.363 .      A
N83   C292  1.355 .      A
C292  N84   1.371 .      A
N84   C293  1.362 .      A
C293  C294  1.379 1_556  A
C294  C293  1.379 1_554  A
C295  C296  1.386 1_556  A
C295  C301  1.384 .      A
C296  C295  1.386 1_554  A
C296  C297  1.381 1_554  A
C297  C296  1.381 1_556  A
C297  C298  1.373 .      A
C298  N85   1.356 .      A
C298  C300  1.367 .      A
N85   C299  1.370 .      A
C299  N86   1.376 .      A
N86   C300  1.339 .      A
C300  C301  1.373 .      A
C302  C303  1.371 .      A
C302  C308  1.388 .      A
C303  C304  1.365 .      A
C304  C305  1.380 .      A
C305  N87   1.339 .      A
C305  C307  1.346 .      A
N87   C306  1.374 .      A
C306  N88   1.374 .      A
N88   C307  1.363 .      A
C307  C308  1.385 .      A
C309  C310  1.389 .      A
C309  C315  1.387 .      A
C310  C311  1.380 .      A
C311  C312  1.370 .      A
C312  N89   1.338 .      A
C312  C314  1.360 .      A
N89   C313  1.374 .      A
C313  N90   1.370 .      A
N90   C314  1.356 .      A
C314  C315  1.373 .      A
C316  C317  1.385 .      A
C316  C322  1.380 .      A
C317  C318  1.384 .      A
C318  C319  1.375 .      A
C319  N91   1.353 .      A
C319  C321  1.358 .      A
N91   C320  1.373 .      A
C320  N92   1.375 .      A
N92   C321  1.342 .      A
C321  C322  1.374 .      A
C323  C324  1.382 .      A
C323  C329  1.363 .      A
C324  C325  1.380 .      A
C325  C326  1.365 .      A
C326  N93   1.340 .      A
C326  C328  1.337 .      A
N93   C327  1.369 .      A
C327  N94   1.366 .      A
N94   C328  1.336 .      A
C328  C329  1.359 .      A
C330  C331  1.391 .      A
C330  C336  1.389 .      A
C331  C332  1.381 .      A
C332  C333  1.369 .      A
C333  N95   1.342 .      A
C333  C335  1.369 .      A
N95   C334  1.387 .      A
C334  N96   1.377 .      A
N96   C335  1.351 .      A
C335  C336  1.374 .      A
C337  C338  1.383 .      A
C337  C343  1.381 .      A
C338  C339  1.381 .      A
C339  C340  1.370 .      A
C340  N97   1.353 .      A
C340  C342  1.364 .      A
N97   C341  1.370 .      A
C341  N98   1.365 .      A
N98   C342  1.341 .      A
C342  C343  1.371 .      A
C344  C345  1.385 .      A
C344  C350  1.381 .      A
C345  C346  1.379 .      A
C346  C347  1.370 .      A
C347  N99   1.342 .      A
C347  C349  1.362 .      A
N99   C348  1.378 .      A
C348  N100  1.377 .      A
N100  C349  1.347 .      A
C349  C350  1.371 .      A
C351  C352  1.387 .      A
C351  C357  1.385 .      A
C352  C353  1.382 .      A
C353  C354  1.373 .      A
C354  N101  1.344 .      A
C354  C356  1.361 .      A
N101  C355  1.385 .      A
C355  N102  1.383 .      A
N102  C356  1.349 .      A
C356  C357  1.371 .      A
C358  C359  1.387 .      A
C358  C364  1.390 .      A
C359  C360  1.378 .      A
C360  C361  1.370 .      A
C361  N103  1.332 .      A
C361  C363  1.351 .      A
N103  C362  1.369 .      A
C362  N104  1.368 .      A
N104  C363  1.356 .      A
C363  C364  1.372 .      A
C365  C366  1.389 .      A
C365  C371  1.384 .      A
C366  C367  1.383 .      A
C367  C368  1.370 .      A
C368  N105  1.344 .      A
C368  C370  1.361 .      A
N105  C369  1.379 .      A
C369  N106  1.378 .      A
N106  C370  1.346 .      A
C370  C371  1.370 .      A
C372  C373  1.389 .      A
C372  C378  1.386 .      A
C373  C374  1.381 .      A
C374  C375  1.374 .      A
C375  N107  1.347 .      A
C375  C377  1.368 .      A
N107  C376  1.381 .      A
C376  N108  1.385 .      A
N108  C377  1.352 .      A
C377  C378  1.376 .      A
C379  C380  1.386 1_545  A
C379  C385  1.381 .      A
C380  C379  1.386 1_565  A
C380  C381  1.383 1_455  A
C381  C380  1.383 1_655  A
C381  C382  1.375 1_565  A
C382  C381  1.375 1_545  A
C382  N109  1.352 1_545  A
C382  C384  1.363 .      A
N109  C382  1.352 1_565  A
N109  C383  1.373 1_565  A
C383  N109  1.373 1_545  A
C383  N110  1.377 .      A
N110  C384  1.344 .      A
C384  C385  1.371 1_655  A
C385  C384  1.371 1_455  A
C386  C387  1.391 .      A
C386  C392  1.363 1_554  A
C387  C388  1.396 .      A
C388  C389  1.372 1_554  A
C389  C388  1.372 1_556  A
C389  N111  1.355 .      A
C389  C391  1.366 .      A
N111  C390  1.377 .      A
C390  N112  1.362 .      A
N112  C391  1.326 .      A
C391  C392  1.356 .      A
C392  C386  1.363 1_556  A
C393  C394  1.393 .      A
C393  C399  1.386 .      A
C394  C395  1.386 .      A
C395  C396  1.372 .      A
C396  N113  1.347 .      A
C396  C398  1.365 .      A
N113  C397  1.377 .      A
C397  N114  1.372 .      A
N114  C398  1.348 .      A
C398  C399  1.373 .      A
C400  C401  1.373 .      A
C400  C406  1.368 .      A
C401  C402  1.377 .      A
C402  C403  1.375 .      A
C403  N115  1.352 .      A
C403  C405  1.345 .      A
N115  C404  1.377 .      A
C404  N116  1.375 .      A
N116  C405  1.337 .      A
C405  C406  1.370 .      A
C407  C408  1.390 1_556  A
C407  C413  1.380 .      A
C408  C407  1.390 1_554  A
C408  C409  1.384 1_554  A
C409  C408  1.384 1_556  A
C409  C410  1.373 .      A
C410  N117  1.340 .      A
C410  C412  1.350 .      A
N117  C411  1.360 .      A
C411  N118  1.365 .      A
N118  C412  1.347 .      A
C412  C413  1.366 .      A
C414  C415  1.392 1_565  A
C414  C420  1.386 1_455  A
C415  C414  1.392 1_545  A
C415  C416  1.385 .      A
C416  C417  1.373 1_455  A
C417  C416  1.373 1_655  A
C417  N119  1.351 .      A
C417  C419  1.369 1_545  A
N119  C418  1.382 .      A
C418  N120  1.384 1_545  A
N120  C418  1.384 1_565  A
N120  C419  1.346 .      A
C419  C417  1.369 1_565  A
C419  C420  1.370 .      A
C420  C414  1.386 1_655  A
C421  C422  1.387 .      A
C421  C427  1.378 .      A
C422  C423  1.373 .      A
C423  C424  1.361 .      A
C424  N121  1.338 .      A
C424  C426  1.353 .      A
N121  C425  1.363 .      A
C425  N122  1.368 .      A
N122  C426  1.342 .      A
C426  C427  1.368 .      A
C428  C429  1.384 .      A
C428  C434  1.388 .      A
C429  C430  1.375 .      A
C430  C431  1.370 .      A
C431  N123  1.338 .      A
C431  C433  1.357 .      A
N123  C432  1.368 1_655  A
C432  N123  1.368 1_455  A
C432  N124  1.370 1_455  A
N124  C432  1.370 1_655  A
N124  C433  1.351 .      A
C433  C434  1.374 .      A
C435  C436  1.386 .      A
C435  C441  1.393 .      A
C436  C437  1.375 .      A
C437  C438  1.368 .      A
C438  N125  1.337 .      A
C438  C440  1.353 .      A
N125  C439  1.362 .      A
C439  N126  1.366 .      A
N126  C440  1.349 .      A
C440  C441  1.377 .      A
C442  C443  1.391 .      A
C442  C448  1.384 .      A
C443  C444  1.386 .      A
C444  C445  1.373 .      A
C445  N127  1.347 .      A
C445  C447  1.360 .      A
N127  C446  1.378 .      A
C446  N128  1.377 .      A
N128  C447  1.344 .      A
C447  C448  1.372 .      A
C449  C450  1.385 1_455  A
C449  C455  1.381 1_455  A
C450  C449  1.385 1_655  A
C450  C451  1.382 .      A
C451  C452  1.372 .      A
C452  N129  1.352 .      A
C452  C454  1.361 .      A
N129  C453  1.376 .      A
C453  N130  1.377 .      A
N130  C454  1.344 .      A
C454  C455  1.373 .      A
C455  C449  1.381 1_655  A
C456  C457  1.387 .      A
C456  C462  1.373 .      A
C457  C458  1.382 .      A
C458  C459  1.370 .      A
C459  N131  1.351 .      A
C459  C461  1.360 .      A
N131  C460  1.363 .      A
C460  N132  1.357 .      A
N132  C461  1.336 .      A
C461  C462  1.368 .      A
C463  C464  1.392 1_655  A
C463  C469  1.385 .      A
C464  C463  1.392 1_455  A
C464  C465  1.385 .      A
C465  C466  1.370 .      A
C466  N133  1.349 .      A
C466  C468  1.369 1_455  A
N133  C467  1.364 1_455  A
C467  N133  1.364 1_655  A
C467  N134  1.356 .      A
N134  C468  1.343 .      A
C468  C466  1.369 1_655  A
C468  C469  1.369 .      A
C470  C471  1.386 .      A
C470  C476  1.383 .      A
C471  C472  1.380 .      A
C472  C473  1.372 .      A
C473  N135  1.353 .      A
C473  C475  1.356 .      A
N135  C474  1.357 .      A
C474  N136  1.349 .      A
N136  C475  1.334 .      A
C475  C476  1.368 .      A
