data_str_m1_o12271_BSV
_audit_creation_date              2015-10-01T06:27:34-0700
_symmetry_space_group_name_H-M    P1
_symmetry_Int_Tables_number       1
_space_group_crystal_system       triclinic
loop_
_symmetry_equiv_pos_as_xyz
  x,y,z
_cell_length_a                    33.1975982
_cell_length_b                    33.9171412
_cell_length_c                    33.2509130
_cell_angle_alpha                 107.508896
_cell_angle_beta                  109.329914
_cell_angle_gamma                 111.697132
_cell_volume                      28748.280298

loop_
_atom_site_label
_atom_site_type_symbol
_atom_site_description
_atom_site_fract_x
_atom_site_fract_y
_atom_site_fract_z
_atom_type_partial_charge
Zn1   Zn    Zn3+2 0.103770 0.329898 0.972866 0.000000
Zn2   Zn    Zn3+2 0.927572 0.317196 0.030820 0.000000
Zn3   Zn    Zn3+2 0.067942 0.555531 0.191075 0.000000
Zn4   Zn    Zn3+2 0.244220 0.832544 0.839067 0.000000
Zn5   Zn    Zn3+2 0.878749 0.090271 0.956576 0.000000
Zn6   Zn    Zn3+2 0.069654 0.603776 0.693631 0.000000
Zn7   Zn    Zn3+2 0.300758 0.821000 0.660661 0.000000
Zn8   Zn    Zn3+2 0.956558 0.102186 0.799318 0.000000
Zn9   Zn    Zn3+2 0.585895 0.087707 0.219501 0.000000
Zn10  Zn    Zn3+2 0.440021 0.097953 0.311082 0.000000
Zn11  Zn    Zn3+2 0.796019 0.054197 0.416327 0.000000
Zn12  Zn    Zn3+2 0.739565 0.602602 0.103180 0.000000
Zn13  Zn    Zn3+2 0.872765 0.867748 0.710238 0.000000
Zn14  Zn    Zn3+2 0.723325 0.820510 0.329172 0.000000
Zn15  Zn    Zn3+2 0.099764 0.857006 0.931012 0.000000
Zn16  Zn    Zn3+2 0.455329 0.336042 0.535303 0.000000
Zn17  Zn    Zn3+2 0.742623 0.009460 0.199890 0.000000
Zn18  Zn    Zn3+2 0.966820 0.184780 0.643264 0.000000
Zn19  Zn    Zn3+2 0.279409 0.551869 0.432043 0.000000
Zn20  Zn    Zn3+2 0.789286 0.828626 0.159985 0.000000
Zn21  Zn    Zn3+2 0.379786 0.105754 0.478213 0.000000
Zn22  Zn    Zn3+2 0.613128 0.323087 0.461777 0.000000
Zn23  Zn    Zn3+2 0.949303 0.931503 0.935320 0.000000
Zn24  Zn    Zn3+2 0.567361 0.587481 0.159330 0.000000
Zn25  Zn    Zn3+2 0.923229 0.692840 0.709098 0.000000
Zn26  Zn    Zn3+2 0.708048 0.062313 0.023509 0.000000
Zn27  Zn    Zn3+2 0.229575 0.728003 0.423066 0.000000
Zn28  Zn    Zn3+2 0.198801 0.357296 0.832088 0.000000
Zn29  Zn    Zn3+2 0.453862 0.492228 0.458632 0.000000
Zn30  Zn    Zn3+2 0.472101 0.049255 0.801029 0.000000
Zn31  Zn    Zn3+2 0.230057 0.487434 0.204864 0.000000
Zn32  Zn    Zn3+2 0.991274 0.373341 0.606383 0.000000
Zn33  Zn    Zn3+2 0.484316 0.999206 0.980146 0.000000
Zn34  Zn    Zn3+2 0.692190 0.219458 0.950257 0.000000
Zn35  Zn    Zn3+2 0.196858 0.937688 0.167324 0.000000
Zn36  Zn    Zn3+2 0.975865 0.696697 0.176644 0.000000
Zn37  Zn    Zn3+2 0.396057 0.368826 0.705839 0.000000
Zn38  Zn    Zn3+2 0.710629 0.727963 0.474964 0.000000
Zn39  Zn    Zn3+2 0.448113 0.195373 0.713173 0.000000
Zn40  Zn    Zn3+2 0.475198 0.573431 0.305282 0.000000
Zn41  Zn    Zn3+2 0.754761 0.232909 0.442606 0.000000
Zn42  Zn    Zn3+2 0.965873 0.861430 0.104764 0.000000
Zn43  Zn    Zn3+2 0.226087 0.433859 0.685219 0.000000
Zn44  Zn    Zn3+2 0.208083 0.877137 0.341966 0.000000
Zn45  Zn    Zn3+2 0.438943 0.427079 0.925102 0.000000
Zn46  Zn    Zn3+2 0.690576 0.554656 0.523430 0.000000
Zn47  Zn    Zn3+2 0.605536 0.368407 0.946324 0.000000
Zn48  Zn    Zn3+2 0.232936 0.593369 0.620308 0.000000
Br1   Br    Br    0.933509 0.208679 0.919900 0.000000
C1    C     C_R   0.868862 0.188560 0.909063 0.000000
C2    C     C_R   0.829375 0.170495 0.864082 0.000000
C3    C     C_R   0.783367 0.159729 0.858451 0.000000
C4    C     C_R   0.779032 0.172995 0.899160 0.000000
C5    C     C_R   0.818817 0.192746 0.943684 0.000000
C6    C     C_R   0.862303 0.196922 0.948229 0.000000
C7    C     C_R   0.897766 0.206208 0.994127 0.000000
N1    N     N_R   0.897316 0.167190 0.001184 0.000000
C8    C     C_R   0.917271 0.187390 0.049657 0.000000
C9    C     C_R   0.928067 0.165608 0.076330 0.000000
C10   C     C_R   0.947933 0.189192 0.125680 0.000000
C11   C     C_R   0.955738 0.234681 0.147427 0.000000
C12   C     C_R   0.944965 0.256853 0.120279 0.000000
C13   C     C_R   0.927892 0.234178 0.070508 0.000000
N2    N     N_R   0.918154 0.249336 0.036186 0.000000
H1    H     H_    0.832662 0.161903 0.832467 0.000000
H2    H     H_    0.752068 0.143326 0.822648 0.000000
H3    H     H_    0.744670 0.167116 0.898104 0.000000
H4    H     H_    0.815169 0.204169 0.975284 0.000000
H5    H     H_    0.923787 0.131797 0.058687 0.000000
H6    H     H_    0.957269 0.172219 0.147117 0.000000
H7    H     H_    0.971024 0.253624 0.186334 0.000000
H8    H     H_    0.953539 0.291985 0.141193 0.000000
Br2   Br    Br    0.839544 0.257933 0.085402 0.000000
C14   C     C_R   0.834195 0.312085 0.087434 0.000000
C15   C     C_R   0.841059 0.344633 0.129576 0.000000
C16   C     C_R   0.836312 0.383581 0.131857 0.000000
C17   C     C_R   0.825407 0.390541 0.092014 0.000000
C18   C     C_R   0.819230 0.358564 0.050117 0.000000
C19   C     C_R   0.822821 0.318779 0.047368 0.000000
C20   C     C_R   0.813398 0.285114 0.001123 0.000000
N3    N     N_R   0.851591 0.295872 0.989673 0.000000
C21   C     C_R   0.826330 0.281708 0.941883 0.000000
C22   C     C_R   0.842822 0.275937 0.908949 0.000000
C23   C     C_R   0.810366 0.260120 0.861117 0.000000
C24   C     C_R   0.760551 0.244178 0.845770 0.000000
C25   C     C_R   0.743319 0.243599 0.878259 0.000000
C26   C     C_R   0.776456 0.262561 0.925784 0.000000
N4    N     N_R   0.765733 0.260033 0.960872 0.000000
H9    H     H_    0.849862 0.339317 0.161086 0.000000
H10   H     H_    0.841366 0.408623 0.164888 0.000000
H11   H     H_    0.822071 0.421351 0.093983 0.000000
H12   H     H_    0.811560 0.364593 0.019087 0.000000
H13   H     H_    0.878312 0.278885 0.918587 0.000000
H14   H     H_    0.822877 0.256640 0.834897 0.000000
H15   H     H_    0.734505 0.229066 0.807740 0.000000
H16   H     H_    0.704155 0.227403 0.866324 0.000000
Br3   Br    Br    0.059125 0.258845 0.997137 0.000000
C27   C     C_R   0.057396 0.289468 0.050927 0.000000
C28   C     C_R   0.069635 0.278511 0.088322 0.000000
C29   C     C_R   0.058211 0.293043 0.123613 0.000000
C30   C     C_R   0.034485 0.318207 0.120496 0.000000
C31   C     C_R   0.022487 0.328684 0.083154 0.000000
C32   C     C_R   0.034657 0.315204 0.047944 0.000000
C33   C     C_R   0.015544 0.323177 0.006100 0.000000
N5    N     N_R   0.039188 0.336199 0.979427 0.000000
C34   C     C_R   0.011420 0.353278 0.957934 0.000000
C35   C     C_R   0.016985 0.376502 0.930573 0.000000
C36   C     C_R   0.983196 0.389535 0.911925 0.000000
C37   C     C_R   0.944869 0.381722 0.921997 0.000000
C38   C     C_R   0.943023 0.364704 0.954303 0.000000
C39   C     C_R   0.973915 0.347929 0.968950 0.000000
N6    N     N_R   0.974182 0.327893 0.997907 0.000000
H17   H     H_    0.085354 0.256013 0.088603 0.000000
H18   H     H_    0.066857 0.284126 0.152706 0.000000
H19   H     H_    0.025766 0.331195 0.147847 0.000000
H20   H     H_    0.007117 0.351105 0.084689 0.000000
H21   H     H_    0.043056 0.381536 0.918678 0.000000
H22   H     H_    0.986422 0.405178 0.888400 0.000000
H23   H     H_    0.918699 0.392172 0.907406 0.000000
H24   H     H_    0.916984 0.363666 0.967091 0.000000
Br4   Br    Br    0.065219 0.441718 0.079220 0.000000
C40   C     C_R   0.023671 0.462749 0.052919 0.000000
C41   C     C_R   0.024955 0.478694 0.019502 0.000000
C42   C     C_R   0.986565 0.484306 0.995203 0.000000
C43   C     C_R   0.945509 0.470015 0.001477 0.000000
C44   C     C_R   0.944568 0.453036 0.034134 0.000000
C45   C     C_R   0.986148 0.454044 0.063252 0.000000
C46   C     C_R   0.989185 0.441145 0.101936 0.000000
N7    N     N_R   0.963996 0.392673 0.091399 0.000000
C47   C     C_R   0.964415 0.399049 0.133030 0.000000
C48   C     C_R   0.945924 0.363071 0.142346 0.000000
C49   C     C_R   0.947271 0.373362 0.186297 0.000000
C50   C     C_R   0.960537 0.419670 0.216219 0.000000
C51   C     C_R   0.978644 0.456428 0.205221 0.000000
C52   C     C_R   0.986235 0.446440 0.165842 0.000000
N8    N     N_R   0.008068 0.476106 0.150029 0.000000
H25   H     H_    0.054511 0.485270 0.010847 0.000000
H26   H     H_    0.986990 0.496432 0.968697 0.000000
H27   H     H_    0.913471 0.470533 0.979674 0.000000
H28   H     H_    0.910490 0.437275 0.035202 0.000000
H29   H     H_    0.929277 0.328180 0.112940 0.000000
H30   H     H_    0.933064 0.344657 0.194872 0.000000
H31   H     H_    0.957626 0.427438 0.248785 0.000000
H32   H     H_    0.989116 0.491424 0.229867 0.000000
Br5   Br    Br    0.287314 0.899104 0.983355 0.000000
C53   C     C_R   0.236114 0.837731 0.964314 0.000000
C54   C     C_R   0.245386 0.816548 0.992878 0.000000
C55   C     C_R   0.209027 0.771592 0.980117 0.000000
C56   C     C_R   0.164273 0.747352 0.937679 0.000000
C57   C     C_R   0.154448 0.769136 0.909710 0.000000
C58   C     C_R   0.190500 0.814945 0.922793 0.000000
C59   C     C_R   0.180397 0.842385 0.897677 0.000000
N9    N     N_R   0.154663 0.865528 0.907026 0.000000
C60   C     C_R   0.168529 0.898006 0.891812 0.000000
C61   C     C_R   0.150484 0.927360 0.887996 0.000000
C62   C     C_R   0.168190 0.958683 0.871159 0.000000
C63   C     C_R   0.200397 0.956361 0.854189 0.000000
C64   C     C_R   0.215463 0.923517 0.855051 0.000000
C65   C     C_R   0.198632 0.894070 0.873240 0.000000
N10   N     N_R   0.205157 0.857077 0.872942 0.000000
H33   H     H_    0.281472 0.835090 0.025063 0.000000
H34   H     H_    0.216084 0.754670 0.002298 0.000000
H35   H     H_    0.136142 0.711579 0.927296 0.000000
H36   H     H_    0.117742 0.750066 0.878947 0.000000
H37   H     H_    0.119493 0.921616 0.893278 0.000000
H38   H     H_    0.154197 0.982349 0.867838 0.000000
H39   H     H_    0.212155 0.978903 0.838432 0.000000
H40   H     H_    0.238466 0.919746 0.839991 0.000000
Br6   Br    Br    0.172362 0.688625 0.678686 0.000000
C66   C     C_R   0.133761 0.713753 0.683711 0.000000
C67   C     C_R   0.113416 0.724904 0.649140 0.000000
C68   C     C_R   0.089954 0.749607 0.655338 0.000000
C69   C     C_R   0.094287 0.769019 0.699659 0.000000
C70   C     C_R   0.124131 0.765357 0.736910 0.000000
C71   C     C_R   0.136327 0.731158 0.727074 0.000000
C72   C     C_R   0.157919 0.719088 0.764334 0.000000
N11   N     N_R   0.133067 0.673033 0.760283 0.000000
C73   C     C_R   0.159115 0.683517 0.807221 0.000000
C74   C     C_R   0.148797 0.655066 0.828795 0.000000
C75   C     C_R   0.183739 0.671084 0.875775 0.000000
C76   C     C_R   0.226540 0.716565 0.901915 0.000000
C77   C     C_R   0.231505 0.748303 0.883375 0.000000
C78   C     C_R   0.198418 0.730791 0.835521 0.000000
N12   N     N_R   0.198698 0.755291 0.810286 0.000000
H41   H     H_    0.111809 0.710398 0.615632 0.000000
H42   H     H_    0.071174 0.756170 0.626974 0.000000
H43   H     H_    0.080258 0.792419 0.705743 0.000000
H44   H     H_    0.141185 0.790978 0.774200 0.000000
H45   H     H_    0.115659 0.620424 0.810091 0.000000
H46   H     H_    0.177623 0.647887 0.892118 0.000000
H47   H     H_    0.253724 0.728809 0.938662 0.000000
H48   H     H_    0.260849 0.785776 0.906252 0.000000
Br7   Br    Br    0.363810 0.903118 0.837631 0.000000
C79   C     C_R   0.350380 0.839894 0.811615 0.000000
C80   C     C_R   0.384712 0.827825 0.829985 0.000000
C81   C     C_R   0.377665 0.783791 0.806014 0.000000
C82   C     C_R   0.334879 0.751443 0.763330 0.000000
C83   C     C_R   0.299087 0.762236 0.746342 0.000000
C84   C     C_R   0.307267 0.807168 0.769813 0.000000
C85   C     C_R   0.273511 0.822553 0.750173 0.000000
N13   N     N_R   0.248046 0.835202 0.773220 0.000000
C86   C     C_R   0.222340 0.846295 0.742036 0.000000
C87   C     C_R   0.189607 0.860620 0.744269 0.000000
C88   C     C_R   0.162164 0.865327 0.706544 0.000000
C89   C     C_R   0.165763 0.852272 0.665057 0.000000
C90   C     C_R   0.199882 0.838842 0.663692 0.000000
C91   C     C_R   0.230415 0.839288 0.703361 0.000000
N14   N     N_R   0.265130 0.826746 0.707696 0.000000
H49   H     H_    0.417011 0.852030 0.863396 0.000000
H50   H     H_    0.405388 0.774853 0.820254 0.000000
H51   H     H_    0.330116 0.717671 0.742884 0.000000
H52   H     H_    0.266417 0.736171 0.713042 0.000000
H53   H     H_    0.181361 0.862544 0.772087 0.000000
H54   H     H_    0.134793 0.874922 0.707770 0.000000
H55   H     H_    0.141373 0.851631 0.633504 0.000000
H56   H     H_    0.198974 0.823890 0.630845 0.000000
Br8   Br    Br    0.393565 0.002991 0.037339 0.000000
C92   C     C_R   0.355306 0.996937 0.977788 0.000000
C93   C     C_R   0.338173 0.028419 0.980727 0.000000
C94   C     C_R   0.317502 0.033622 0.941187 0.000000
C95   C     C_R   0.316097 0.008515 0.899395 0.000000
C96   C     C_R   0.329408 0.973966 0.895280 0.000000
C97   C     C_R   0.348300 0.966439 0.933963 0.000000
C98   C     C_R   0.359880 0.927032 0.928167 0.000000
N15   N     N_R   0.409006 0.935957 0.949046 0.000000
C99   C     C_R   0.399426 0.890555 0.938669 0.000000
C100  C     C_R   0.433144 0.876203 0.950242 0.000000
C101  C     C_R   0.416274 0.827813 0.935291 0.000000
C102  C     C_R   0.366079 0.793684 0.903816 0.000000
C103  C     C_R   0.332763 0.808017 0.887886 0.000000
C104  C     C_R   0.349314 0.856555 0.909045 0.000000
N16   N     N_R   0.322362 0.877220 0.898705 0.000000
H57   H     H_    0.343493 0.050985 0.015180 0.000000
H58   H     H_    0.305451 0.059397 0.943780 0.000000
H59   H     H_    0.302248 0.014545 0.868965 0.000000
H60   H     H_    0.323086 0.952114 0.860724 0.000000
H61   H     H_    0.471870 0.901199 0.967444 0.000000
H62   H     H_    0.442802 0.816343 0.944584 0.000000
H63   H     H_    0.353982 0.755920 0.888679 0.000000
H64   H     H_    0.295741 0.781809 0.857509 0.000000
Br9   Br    Br    0.978649 0.174550 0.997072 0.000000
C105  C     C_R   0.005300 0.146232 0.969348 0.000000
C106  C     C_R   0.053571 0.160985 0.000350 0.000000
C107  C     C_R   0.075726 0.138394 0.985421 0.000000
C108  C     C_R   0.051157 0.105492 0.937837 0.000000
C109  C     C_R   0.006051 0.097591 0.904960 0.000000
C110  C     C_R   0.979467 0.113833 0.920713 0.000000
C111  C     C_R   0.927814 0.099102 0.884732 0.000000
N17   N     N_R   0.886991 0.089717 0.893099 0.000000
C112  C     C_R   0.851131 0.078068 0.849403 0.000000
C113  C     C_R   0.803771 0.068051 0.835971 0.000000
C114  C     C_R   0.772780 0.057802 0.789705 0.000000
C115  C     C_R   0.790621 0.059998 0.757937 0.000000
C116  C     C_R   0.839056 0.070936 0.771817 0.000000
C117  C     C_R   0.868087 0.079197 0.817432 0.000000
N18   N     N_R   0.916083 0.091989 0.837611 0.000000
H65   H     H_    0.072810 0.188220 0.037727 0.000000
H66   H     H_    0.112667 0.147737 0.010076 0.000000
H67   H     H_    0.072225 0.091643 0.927085 0.000000
H68   H     H_    0.990722 0.078727 0.866400 0.000000
H69   H     H_    0.793211 0.072856 0.862413 0.000000
H70   H     H_    0.735231 0.050417 0.778911 0.000000
H71   H     H_    0.766354 0.052507 0.722182 0.000000
H72   H     H_    0.853352 0.072097 0.747115 0.000000
Br10  Br    Br    0.047518 0.308700 0.870964 0.000000
C118  C     C_R   0.987566 0.265336 0.861648 0.000000
C119  C     C_R   0.947275 0.271287 0.845380 0.000000
C120  C     C_R   0.899823 0.232334 0.818717 0.000000
C121  C     C_R   0.893778 0.187617 0.804937 0.000000
C122  C     C_R   0.934030 0.182499 0.821784 0.000000
C123  C     C_R   0.981209 0.221333 0.853980 0.000000
C124  C     C_R   0.024018 0.215628 0.876104 0.000000
N19   N     N_R   0.021066 0.171162 0.857768 0.000000
C125  C     C_R   0.067385 0.183082 0.888492 0.000000
C126  C     C_R   0.087179 0.154246 0.888174 0.000000
C127  C     C_R   0.133442 0.172268 0.926928 0.000000
C128  C     C_R   0.159423 0.219143 0.964591 0.000000
C129  C     C_R   0.141693 0.249596 0.960883 0.000000
C130  C     C_R   0.095199 0.230456 0.923623 0.000000
N20   N     N_R   0.069754 0.253172 0.918125 0.000000
H73   H     H_    0.952115 0.304452 0.845923 0.000000
H74   H     H_    0.868375 0.236239 0.803047 0.000000
H75   H     H_    0.857048 0.156139 0.780039 0.000000
H76   H     H_    0.927879 0.147768 0.809363 0.000000
H77   H     H_    0.064717 0.116839 0.862375 0.000000
H78   H     H_    0.148397 0.149052 0.928761 0.000000
H79   H     H_    0.195318 0.232945 0.995054 0.000000
H80   H     H_    0.163558 0.287683 0.986720 0.000000
Br11  Br    Br    0.853201 0.040539 0.615295 0.000000
C131  C     C_R   0.830573 0.072203 0.651457 0.000000
C132  C     C_R   0.780264 0.051752 0.636084 0.000000
C133  C     C_R   0.762844 0.080249 0.653234 0.000000
C134  C     C_R   0.795389 0.129486 0.682390 0.000000
C135  C     C_R   0.845669 0.149161 0.697700 0.000000
C136  C     C_R   0.864040 0.119427 0.687238 0.000000
C137  C     C_R   0.917644 0.136498 0.708106 0.000000
N21   N     N_R   0.941642 0.123586 0.741525 0.000000
C138  C     C_R   0.978290 0.126427 0.731983 0.000000
C139  C     C_R   0.013641 0.116785 0.752098 0.000000
C140  C     C_R   0.038338 0.107459 0.727564 0.000000
C141  C     C_R   0.023048 0.104115 0.682341 0.000000
C142  C     C_R   0.993191 0.122143 0.668049 0.000000
C143  C     C_R   0.975998 0.138096 0.696698 0.000000
N22   N     N_R   0.943134 0.151825 0.684373 0.000000
H81   H     H_    0.754137 0.014342 0.608248 0.000000
H82   H     H_    0.723313 0.064725 0.640670 0.000000
H83   H     H_    0.781561 0.152753 0.693145 0.000000
H84   H     H_    0.870241 0.187493 0.719851 0.000000
H85   H     H_    0.021328 0.117198 0.785938 0.000000
H86   H     H_    0.067317 0.099946 0.741354 0.000000
H87   H     H_    0.037524 0.090997 0.660182 0.000000
H88   H     H_    0.981808 0.123215 0.634984 0.000000
Br12  Br    Br    0.891071 0.975124 0.650827 0.000000
C144  C     C_R   0.844564 0.970285 0.673858 0.000000
C145  C     C_R   0.796741 0.958973 0.645159 0.000000
C146  C     C_R   0.765014 0.956102 0.663777 0.000000
C147  C     C_R   0.780350 0.962335 0.710276 0.000000
C148  C     C_R   0.828022 0.973222 0.738701 0.000000
C149  C     C_R   0.860164 0.977780 0.720516 0.000000
C150  C     C_R   0.909385 0.985421 0.746525 0.000000
N23   N     N_R   0.916114 0.945922 0.734369 0.000000
C151  C     C_R   0.963869 0.968031 0.745694 0.000000
C152  C     C_R   0.990238 0.946090 0.746296 0.000000
C153  C     C_R   0.038675 0.970890 0.756232 0.000000
C154  C     C_R   0.061373 0.019836 0.771906 0.000000
C155  C     C_R   0.036299 0.043622 0.779001 0.000000
C156  C     C_R   0.985724 0.017228 0.764288 0.000000
N24   N     N_R   0.952614 0.031147 0.768316 0.000000
H89   H     H_    0.783754 0.952238 0.608093 0.000000
H90   H     H_    0.727602 0.947396 0.641424 0.000000
H91   H     H_    0.754910 0.958298 0.724400 0.000000
H92   H     H_    0.839287 0.977268 0.774527 0.000000
H93   H     H_    0.972531 0.911093 0.742653 0.000000
H94   H     H_    0.059893 0.953294 0.755554 0.000000
H95   H     H_    0.100419 0.040498 0.782771 0.000000
H96   H     H_    0.059002 0.081826 0.797017 0.000000
Br13  Br    Br    0.525068 0.949227 0.059463 0.000000
C157  C     C_R   0.470419 0.944976 0.064857 0.000000
C158  C     C_R   0.433032 0.902754 0.056810 0.000000
C159  C     C_R   0.406232 0.905464 0.080399 0.000000
C160  C     C_R   0.419585 0.950260 0.113799 0.000000
C161  C     C_R   0.456022 0.991673 0.120043 0.000000
C162  C     C_R   0.479503 0.988631 0.093075 0.000000
C163  C     C_R   0.517379 0.032520 0.098491 0.000000
N25   N     N_R   0.543003 0.073942 0.143312 0.000000
C164  C     C_R   0.543017 0.106711 0.128546 0.000000
C165  C     C_R   0.555999 0.152071 0.156407 0.000000
C166  C     C_R   0.555244 0.182099 0.136237 0.000000
C167  C     C_R   0.540090 0.164672 0.087346 0.000000
C168  C     C_R   0.525525 0.117382 0.059173 0.000000
C169  C     C_R   0.525976 0.088567 0.080047 0.000000
N26   N     N_R   0.510066 0.041177 0.058305 0.000000
H97   H     H_    0.427816 0.868195 0.035909 0.000000
H98   H     H_    0.378011 0.872795 0.075854 0.000000
H99   H     H_    0.402517 0.953673 0.135918 0.000000
H100  H     H_    0.466019 0.026405 0.145965 0.000000
H101  H     H_    0.565325 0.161939 0.192966 0.000000
H102  H     H_    0.566768 0.219082 0.158528 0.000000
H103  H     H_    0.540544 0.188192 0.071406 0.000000
H104  H     H_    0.517587 0.104339 0.022643 0.000000
Br14  Br    Br    0.619595 0.188730 0.384641 0.000000
C170  C     C_R   0.620266 0.131384 0.366211 0.000000
C171  C     C_R   0.595427 0.094718 0.374271 0.000000
C172  C     C_R   0.597050 0.053587 0.360094 0.000000
C173  C     C_R   0.618069 0.046681 0.331949 0.000000
C174  C     C_R   0.636478 0.080836 0.318142 0.000000
C175  C     C_R   0.642937 0.125164 0.339882 0.000000
C176  C     C_R   0.666813 0.163415 0.329709 0.000000
N27   N     N_R   0.709864 0.208225 0.365719 0.000000
C177  C     C_R   0.713207 0.233152 0.340624 0.000000
C178  C     C_R   0.751272 0.278404 0.355161 0.000000
C179  C     C_R   0.747475 0.298620 0.325021 0.000000
C180  C     C_R   0.705380 0.273807 0.280422 0.000000
C181  C     C_R   0.669023 0.227417 0.264541 0.000000
C182  C     C_R   0.673874 0.205777 0.293871 0.000000
N28   N     N_R   0.645018 0.159190 0.283953 0.000000
H105  H     H_    0.576584 0.098054 0.393547 0.000000
H106  H     H_    0.579248 0.025788 0.368413 0.000000
H107  H     H_    0.615019 0.012250 0.316973 0.000000
H108  H     H_    0.647819 0.074135 0.291711 0.000000
H109  H     H_    0.784547 0.299351 0.389570 0.000000
H110  H     H_    0.777177 0.334349 0.336876 0.000000
H111  H     H_    0.701830 0.289714 0.256712 0.000000
H112  H     H_    0.639977 0.209767 0.228597 0.000000
Br15  Br    Br    0.648818 0.132006 0.194689 0.000000
C183  C     C_R   0.711193 0.144278 0.231067 0.000000
C184  C     C_R   0.750415 0.189829 0.248445 0.000000
C185  C     C_R   0.798011 0.199297 0.267459 0.000000
C186  C     C_R   0.805633 0.162918 0.269203 0.000000
C187  C     C_R   0.765818 0.116730 0.249792 0.000000
C188  C     C_R   0.717559 0.106701 0.232061 0.000000
C189  C     C_R   0.674731 0.057718 0.214872 0.000000
N29   N     N_R   0.627639 0.049476 0.209350 0.000000
C190  C     C_R   0.600569 0.001218 0.186159 0.000000
C191  C     C_R   0.550838 0.974316 0.169180 0.000000
C192  C     C_R   0.527705 0.924835 0.149230 0.000000
C193  C     C_R   0.553839 0.903205 0.140759 0.000000
C194  C     C_R   0.603645 0.931154 0.155330 0.000000
C195  C     C_R   0.628031 0.980858 0.179487 0.000000
N30   N     N_R   0.676783 0.015272 0.198162 0.000000
H113  H     H_    0.743364 0.217375 0.244350 0.000000
H114  H     H_    0.828766 0.234298 0.279264 0.000000
H115  H     H_    0.843478 0.170797 0.285202 0.000000
H116  H     H_    0.773022 0.088998 0.249270 0.000000
H117  H     H_    0.531288 0.992521 0.174270 0.000000
H118  H     H_    0.489255 0.903066 0.139432 0.000000
H119  H     H_    0.535944 0.864245 0.124414 0.000000
H120  H     H_    0.622566 0.912705 0.152805 0.000000
Br16  Br    Br    0.407142 0.059011 0.168712 0.000000
C196  C     C_R   0.468759 0.118872 0.200265 0.000000
C197  C     C_R   0.470252 0.151254 0.182880 0.000000
C198  C     C_R   0.511250 0.197766 0.208769 0.000000
C199  C     C_R   0.551001 0.211782 0.251994 0.000000
C200  C     C_R   0.550834 0.178431 0.267639 0.000000
C201  C     C_R   0.509761 0.131904 0.242283 0.000000
C202  C     C_R   0.510268 0.095625 0.257558 0.000000
N31   N     N_R   0.480721 0.077632 0.276948 0.000000
C203  C     C_R   0.481788 0.037388 0.270919 0.000000
C204  C     C_R   0.457333 0.005525 0.282386 0.000000
C205  C     C_R   0.463482 0.966701 0.277741 0.000000
C206  C     C_R   0.494032 0.960706 0.259987 0.000000
C207  C     C_R   0.518757 0.993903 0.247975 0.000000
C208  C     C_R   0.511545 0.032137 0.252510 0.000000
N32   N     N_R   0.531832 0.069233 0.243853 0.000000
H121  H     H_    0.438207 0.140866 0.150099 0.000000
H122  H     H_    0.511695 0.223498 0.195821 0.000000
H123  H     H_    0.583245 0.248185 0.272392 0.000000
H124  H     H_    0.583336 0.189204 0.299524 0.000000
H125  H     H_    0.436486 0.014606 0.297444 0.000000
H126  H     H_    0.445694 0.941929 0.289071 0.000000
H127  H     H_    0.501052 0.931724 0.258252 0.000000
H128  H     H_    0.547924 0.992521 0.242461 0.000000
Br17  Br    Br    0.761008 0.155228 0.343797 0.000000
C209  C     C_R   0.821543 0.173377 0.393613 0.000000
C210  C     C_R   0.864473 0.192171 0.391500 0.000000
C211  C     C_R   0.908334 0.206230 0.429224 0.000000
C212  C     C_R   0.907699 0.196876 0.466462 0.000000
C213  C     C_R   0.865495 0.179919 0.469423 0.000000
C214  C     C_R   0.822445 0.168856 0.433007 0.000000
C215  C     C_R   0.776980 0.144231 0.432849 0.000000
N33   N     N_R   0.750560 0.166376 0.442085 0.000000
C216  C     C_R   0.720093 0.135250 0.450737 0.000000
C217  C     C_R   0.689664 0.142138 0.467819 0.000000
C218  C     C_R   0.663659 0.108063 0.478298 0.000000
C219  C     C_R   0.667736 0.067552 0.470401 0.000000
C220  C     C_R   0.699808 0.061792 0.454463 0.000000
C221  C     C_R   0.726678 0.096390 0.445265 0.000000
N34   N     N_R   0.762661 0.100044 0.432878 0.000000
H129  H     H_    0.864512 0.196820 0.361187 0.000000
H130  H     H_    0.941470 0.218654 0.426024 0.000000
H131  H     H_    0.938268 0.196690 0.490034 0.000000
H132  H     H_    0.865661 0.172871 0.498789 0.000000
H133  H     H_    0.685780 0.173053 0.472083 0.000000
H134  H     H_    0.639553 0.112607 0.492071 0.000000
H135  H     H_    0.647110 0.041047 0.478614 0.000000
H136  H     H_    0.705098 0.032088 0.452435 0.000000
Br18  Br    Br    0.710220 0.048065 0.327641 0.000000
C222  C     C_R   0.692343 0.986609 0.291824 0.000000
C223  C     C_R   0.644397 0.948222 0.265369 0.000000
C224  C     C_R   0.634768 0.906914 0.231101 0.000000
C225  C     C_R   0.672599 0.906592 0.222447 0.000000
C226  C     C_R   0.720754 0.943183 0.253189 0.000000
C227  C     C_R   0.730062 0.983936 0.287808 0.000000
C228  C     C_R   0.775155 0.028844 0.308063 0.000000
N35   N     N_R   0.790815 0.040332 0.277440 0.000000
C229  C     C_R   0.839354 0.074608 0.309160 0.000000
C230  C     C_R   0.876126 0.091148 0.298022 0.000000
C231  C     C_R   0.925176 0.122197 0.334944 0.000000
C232  C     C_R   0.937069 0.132656 0.382167 0.000000
C233  C     C_R   0.899866 0.113081 0.392640 0.000000
C234  C     C_R   0.850820 0.084525 0.356037 0.000000
N36   N     N_R   0.809915 0.057314 0.357527 0.000000
H137  H     H_    0.614014 0.951188 0.267827 0.000000
H138  H     H_    0.596352 0.877778 0.206551 0.000000
H139  H     H_    0.664568 0.878691 0.189885 0.000000
H140  H     H_    0.749788 0.941489 0.246869 0.000000
H141  H     H_    0.867683 0.074933 0.261023 0.000000
H142  H     H_    0.954611 0.135435 0.326505 0.000000
H143  H     H_    0.975682 0.155678 0.411010 0.000000
H144  H     H_    0.909979 0.122098 0.429433 0.000000
Br19  Br    Br    0.778500 0.009159 0.498180 0.000000
C235  C     C_R   0.794172 0.072118 0.536343 0.000000
C236  C     C_R   0.761294 0.075045 0.551805 0.000000
C237  C     C_R   0.766951 0.118921 0.575800 0.000000
C238  C     C_R   0.805414 0.159746 0.583869 0.000000
C239  C     C_R   0.838221 0.157007 0.567799 0.000000
C240  C     C_R   0.834519 0.113522 0.546069 0.000000
C241  C     C_R   0.871792 0.110873 0.532499 0.000000
N37   N     N_R   0.919384 0.124005 0.566296 0.000000
C242  C     C_R   0.930939 0.098563 0.535952 0.000000
C243  C     C_R   0.969915 0.090007 0.545548 0.000000
C244  C     C_R   0.982163 0.077542 0.509860 0.000000
C245  C     C_R   0.950844 0.065827 0.463330 0.000000
C246  C     C_R   0.904167 0.059240 0.451594 0.000000
C247  C     C_R   0.896582 0.078910 0.488540 0.000000
N38   N     N_R   0.858143 0.084846 0.484262 0.000000
H145  H     H_    0.729596 0.042261 0.543131 0.000000
H146  H     H_    0.740575 0.121214 0.587172 0.000000
H147  H     H_    0.809357 0.193864 0.603089 0.000000
H148  H     H_    0.866532 0.188874 0.571713 0.000000
H149  H     H_    0.990589 0.091237 0.578388 0.000000
H150  H     H_    0.015175 0.075054 0.517874 0.000000
H151  H     H_    0.960261 0.055995 0.435183 0.000000
H152  H     H_    0.876123 0.043483 0.414425 0.000000
Br20  Br    Br    0.827174 0.940824 0.486475 0.000000
C248  C     C_R   0.851503 0.952471 0.444798 0.000000
C249  C     C_R   0.898688 0.960212 0.457288 0.000000
C250  C     C_R   0.916732 0.962752 0.425976 0.000000
C251  C     C_R   0.887204 0.957176 0.381876 0.000000
C252  C     C_R   0.839588 0.948620 0.369188 0.000000
C253  C     C_R   0.822683 0.949393 0.401418 0.000000
C254  C     C_R   0.771803 0.939873 0.385026 0.000000
N39   N     N_R   0.731431 0.892412 0.360245 0.000000
C255  C     C_R   0.694082 0.900660 0.355139 0.000000
C256  C     C_R   0.647435 0.867527 0.339939 0.000000
C257  C     C_R   0.612030 0.880590 0.335626 0.000000
C258  C     C_R   0.626097 0.928435 0.349292 0.000000
C259  C     C_R   0.675531 0.962843 0.368210 0.000000
C260  C     C_R   0.709307 0.948325 0.371761 0.000000
N40   N     N_R   0.759019 0.975861 0.390969 0.000000
H153  H     H_    0.920973 0.962810 0.491230 0.000000
H154  H     H_    0.953605 0.968392 0.435586 0.000000
H155  H     H_    0.901009 0.957467 0.356768 0.000000
H156  H     H_    0.813811 0.939741 0.333527 0.000000
H157  H     H_    0.642647 0.833956 0.336940 0.000000
H158  H     H_    0.573886 0.853909 0.322838 0.000000
H159  H     H_    0.598660 0.939026 0.345688 0.000000
H160  H     H_    0.686464 0.999443 0.377243 0.000000
Br21  Br    Br    0.878591 0.786695 0.180864 0.000000
C261  C     C_R   0.846204 0.759512 0.210177 0.000000
C262  C     C_R   0.869761 0.769691 0.257787 0.000000
C263  C     C_R   0.842511 0.749784 0.276863 0.000000
C264  C     C_R   0.793626 0.713462 0.245739 0.000000
C265  C     C_R   0.773067 0.700490 0.198053 0.000000
C266  C     C_R   0.796863 0.726836 0.181590 0.000000
C267  C     C_R   0.770075 0.715088 0.131945 0.000000
N41   N     N_R   0.764164 0.748880 0.118378 0.000000
C268  C     C_R   0.734319 0.719962 0.069891 0.000000
C269  C     C_R   0.712745 0.732611 0.037585 0.000000
C270  C     C_R   0.678197 0.697669 0.989811 0.000000
C271  C     C_R   0.669019 0.651156 0.974625 0.000000
C272  C     C_R   0.690693 0.638673 0.007940 0.000000
C273  C     C_R   0.722592 0.672956 0.055922 0.000000
N42   N     N_R   0.743891 0.667243 0.094674 0.000000
H161  H     H_    0.908266 0.796296 0.281982 0.000000
H162  H     H_    0.861159 0.758805 0.314554 0.000000
H163  H     H_    0.772609 0.689663 0.255443 0.000000
H164  H     H_    0.736839 0.670814 0.173303 0.000000
H165  H     H_    0.725176 0.769804 0.049467 0.000000
H166  H     H_    0.660969 0.707374 0.963769 0.000000
H167  H     H_    0.643486 0.623996 0.936888 0.000000
H168  H     H_    0.678804 0.601962 0.996680 0.000000
Br22  Br    Br    0.689375 0.766362 0.122581 0.000000
C274  C     C_R   0.666913 0.793507 0.158836 0.000000
C275  C     C_R   0.618475 0.782273 0.133493 0.000000
C276  C     C_R   0.593854 0.789822 0.157664 0.000000
C277  C     C_R   0.619177 0.810312 0.207201 0.000000
C278  C     C_R   0.667796 0.822001 0.232475 0.000000
C279  C     C_R   0.693274 0.814567 0.208692 0.000000
C280  C     C_R   0.744614 0.825048 0.237863 0.000000
N43   N     N_R   0.758666 0.829006 0.284010 0.000000
C281  C     C_R   0.805749 0.840434 0.299544 0.000000
C282  C     C_R   0.835277 0.847903 0.342889 0.000000
C283  C     C_R   0.884201 0.861756 0.357006 0.000000
C284  C     C_R   0.902040 0.870551 0.326759 0.000000
C285  C     C_R   0.869735 0.858855 0.280169 0.000000
C286  C     C_R   0.820694 0.843751 0.266784 0.000000
N44   N     N_R   0.782775 0.832882 0.225126 0.000000
H169  H     H_    0.598593 0.763882 0.094205 0.000000
H170  H     H_    0.555834 0.781188 0.138391 0.000000
H171  H     H_    0.602114 0.821377 0.227129 0.000000
H172  H     H_    0.685870 0.839158 0.271209 0.000000
H173  H     H_    0.817990 0.845401 0.364025 0.000000
H174  H     H_    0.909237 0.869190 0.392557 0.000000
H175  H     H_    0.940969 0.884464 0.339122 0.000000
H176  H     H_    0.882758 0.858363 0.254887 0.000000
Br23  Br    Br    0.792528 0.857843 0.056266 0.000000
C287  C     C_R   0.803589 0.807164 0.038864 0.000000
C288  C     C_R   0.771439 0.769187 0.992209 0.000000
C289  C     C_R   0.770607 0.726451 0.980718 0.000000
C290  C     C_R   0.804639 0.723541 0.014872 0.000000
C291  C     C_R   0.839556 0.763498 0.060839 0.000000
C292  C     C_R   0.838343 0.805211 0.073643 0.000000
C293  C     C_R   0.872997 0.846718 0.123338 0.000000
N45   N     N_R   0.924064 0.876887 0.140625 0.000000
C294  C     C_R   0.938152 0.910970 0.185506 0.000000
C295  C     C_R   0.983718 0.952288 0.221737 0.000000
C296  C     C_R   0.989664 0.978170 0.266355 0.000000
C297  C     C_R   0.950538 0.963268 0.275218 0.000000
C298  C     C_R   0.903938 0.925668 0.237540 0.000000
C299  C     C_R   0.898923 0.899766 0.194228 0.000000
N46   N     N_R   0.857125 0.859285 0.156778 0.000000
H177  H     H_    0.744215 0.771675 0.965858 0.000000
H178  H     H_    0.744174 0.695687 0.944709 0.000000
H179  H     H_    0.806317 0.691242 0.003092 0.000000
H180  H     H_    0.868940 0.763207 0.086565 0.000000
H181  H     H_    0.016293 0.964629 0.219277 0.000000
H182  H     H_    0.025941 0.009207 0.295150 0.000000
H183  H     H_    0.955726 0.982865 0.310631 0.000000
H184  H     H_    0.871681 0.915311 0.242044 0.000000
Br24  Br    Br    0.853839 0.984574 0.291860 0.000000
C300  C     C_R   0.867455 0.993490 0.244159 0.000000
C301  C     C_R   0.915284 0.028335 0.258754 0.000000
C302  C     C_R   0.928205 0.034730 0.225149 0.000000
C303  C     C_R   0.893521 0.004872 0.176793 0.000000
C304  C     C_R   0.846648 0.968826 0.162482 0.000000
C305  C     C_R   0.832465 0.962739 0.195672 0.000000
C306  C     C_R   0.779718 0.926942 0.177700 0.000000
N47   N     N_R   0.759088 0.876910 0.147681 0.000000
C307  C     C_R   0.711892 0.864176 0.116918 0.000000
C308  C     C_R   0.675467 0.823521 0.072287 0.000000
C309  C     C_R   0.628660 0.816824 0.049342 0.000000
C310  C     C_R   0.620390 0.853364 0.067477 0.000000
C311  C     C_R   0.660483 0.897662 0.105743 0.000000
C312  C     C_R   0.703954 0.901419 0.131448 0.000000
N48   N     N_R   0.744844 0.942077 0.169881 0.000000
H185  H     H_    0.942972 0.050342 0.296984 0.000000
H186  H     H_    0.965395 0.062448 0.236623 0.000000
H187  H     H_    0.902996 0.010063 0.150068 0.000000
H188  H     H_    0.820330 0.946215 0.124795 0.000000
H189  H     H_    0.681100 0.796316 0.054426 0.000000
H190  H     H_    0.599122 0.783710 0.016037 0.000000
H191  H     H_    0.584280 0.848865 0.048373 0.000000
H192  H     H_    0.659155 0.930075 0.115903 0.000000
Br25  Br    Br    0.344938 0.049864 0.604546 0.000000
C313  C     C_R   0.317871 0.083462 0.581311 0.000000
C314  C     C_R   0.269406 0.068922 0.570730 0.000000
C315  C     C_R   0.250011 0.096491 0.561456 0.000000
C316  C     C_R   0.279320 0.138505 0.562722 0.000000
C317  C     C_R   0.327533 0.152122 0.571416 0.000000
C318  C     C_R   0.346738 0.124009 0.579607 0.000000
C319  C     C_R   0.398648 0.139376 0.591292 0.000000
N49   N     N_R   0.436464 0.160230 0.639247 0.000000
C320  C     C_R   0.471618 0.155340 0.631558 0.000000
C321  C     C_R   0.516271 0.169746 0.666338 0.000000
C322  C     C_R   0.551463 0.167151 0.654219 0.000000
C323  C     C_R   0.537071 0.142628 0.605874 0.000000
C324  C     C_R   0.489392 0.125528 0.570372 0.000000
C325  C     C_R   0.457841 0.134621 0.583821 0.000000
N50   N     N_R   0.412065 0.125521 0.555681 0.000000
H193  H     H_    0.247599 0.037211 0.572329 0.000000
H194  H     H_    0.212590 0.086243 0.554927 0.000000
H195  H     H_    0.264328 0.161223 0.558828 0.000000
H196  H     H_    0.350991 0.185090 0.572980 0.000000
H197  H     H_    0.520203 0.180314 0.701476 0.000000
H198  H     H_    0.588909 0.181087 0.682076 0.000000
H199  H     H_    0.563750 0.138928 0.595737 0.000000
H200  H     H_    0.481038 0.113229 0.533941 0.000000
Br26  Br    Br    0.480736 0.306244 0.614726 0.000000
C326  C     C_R   0.504249 0.271291 0.586444 0.000000
C327  C     C_R   0.552064 0.281376 0.612206 0.000000
C328  C     C_R   0.565563 0.248985 0.597567 0.000000
C329  C     C_R   0.530538 0.206352 0.556273 0.000000
C330  C     C_R   0.482863 0.196327 0.531186 0.000000
C331  C     C_R   0.470157 0.229989 0.543783 0.000000
C332  C     C_R   0.420522 0.219983 0.512447 0.000000
N51   N     N_R   0.379927 0.172147 0.483669 0.000000
C333  C     C_R   0.342756 0.178840 0.461329 0.000000
C334  C     C_R   0.294700 0.143938 0.424034 0.000000
C335  C     C_R   0.263311 0.158860 0.404080 0.000000
C336  C     C_R   0.279910 0.207625 0.421185 0.000000
C337  C     C_R   0.328333 0.242322 0.458381 0.000000
C338  C     C_R   0.360154 0.227362 0.475843 0.000000
N52   N     N_R   0.410127 0.255452 0.506798 0.000000
H201  H     H_    0.579113 0.313757 0.645776 0.000000
H202  H     H_    0.602929 0.256757 0.618464 0.000000
H203  H     H_    0.540107 0.180116 0.543312 0.000000
H204  H     H_    0.457101 0.163897 0.498751 0.000000
H205  H     H_    0.282925 0.106159 0.407536 0.000000
H206  H     H_    0.225893 0.132543 0.374079 0.000000
H207  H     H_    0.254709 0.218651 0.405652 0.000000
H208  H     H_    0.340804 0.280318 0.473216 0.000000
Br27  Br    Br    0.361022 0.000073 0.517712 0.000000
C339  C     C_R   0.356800 0.964759 0.459674 0.000000
C340  C     C_R   0.380090 0.938530 0.460077 0.000000
C341  C     C_R   0.382059 0.915896 0.419577 0.000000
C342  C     C_R   0.361294 0.920400 0.379277 0.000000
C343  C     C_R   0.336274 0.945181 0.378645 0.000000
C344  C     C_R   0.334668 0.968627 0.419005 0.000000
C345  C     C_R   0.300242 0.986744 0.415074 0.000000
N53   N     N_R   0.250129 0.953456 0.395608 0.000000
C346  C     C_R   0.235046 0.982508 0.414146 0.000000
C347  C     C_R   0.193213 0.968673 0.417485 0.000000
C348  C     C_R   0.182684 0.003352 0.436462 0.000000
C349  C     C_R   0.216237 0.051541 0.453560 0.000000
C350  C     C_R   0.263222 0.065444 0.458939 0.000000
C351  C     C_R   0.271506 0.030047 0.438409 0.000000
N54   N     N_R   0.314269 0.035376 0.440422 0.000000
H209  H     H_    0.397590 0.936555 0.492608 0.000000
H210  H     H_    0.400797 0.895755 0.419798 0.000000
H211  H     H_    0.363558 0.903258 0.347663 0.000000
H212  H     H_    0.317397 0.946133 0.346424 0.000000
H213  H     H_    0.171199 0.931524 0.406110 0.000000
H214  H     H_    0.148171 0.993095 0.437277 0.000000
H215  H     H_    0.206997 0.078467 0.466168 0.000000
H216  H     H_    0.292285 0.102853 0.478138 0.000000
Br28  Br    Br    0.310790 0.016870 0.323594 0.000000
C352  C     C_R   0.329971 0.080587 0.337120 0.000000
C353  C     C_R   0.297432 0.091999 0.313429 0.000000
C354  C     C_R   0.307375 0.138025 0.331159 0.000000
C355  C     C_R   0.351061 0.172501 0.372678 0.000000
C356  C     C_R   0.386429 0.162104 0.393080 0.000000
C357  C     C_R   0.376499 0.116091 0.374017 0.000000
C358  C     C_R   0.411423 0.102676 0.395290 0.000000
N55   N     N_R   0.412325 0.091236 0.432221 0.000000
C359  C     C_R   0.435995 0.066424 0.430008 0.000000
C360  C     C_R   0.444650 0.043158 0.456144 0.000000
C361  C     C_R   0.471854 0.021628 0.450764 0.000000
C362  C     C_R   0.488414 0.022010 0.417920 0.000000
C363  C     C_R   0.477625 0.043691 0.390230 0.000000
C364  C     C_R   0.450121 0.064902 0.395461 0.000000
N56   N     N_R   0.435050 0.087595 0.371741 0.000000
H217  H     H_    0.265169 0.065829 0.279448 0.000000
H218  H     H_    0.280695 0.146679 0.313459 0.000000
H219  H     H_    0.356607 0.207488 0.389153 0.000000
H220  H     H_    0.419502 0.188551 0.426565 0.000000
H221  H     H_    0.430916 0.041899 0.480903 0.000000
H222  H     H_    0.480587 0.004823 0.472589 0.000000
H223  H     H_    0.511345 0.006728 0.414981 0.000000
H224  H     H_    0.496561 0.048942 0.370372 0.000000
Br29  Br    Br    0.780371 0.391387 0.565317 0.000000
C365  C     C_R   0.742949 0.343135 0.578346 0.000000
C366  C     C_R   0.751507 0.356538 0.625260 0.000000
C367  C     C_R   0.734656 0.321672 0.638601 0.000000
C368  C     C_R   0.713146 0.273737 0.606146 0.000000
C369  C     C_R   0.704681 0.260633 0.559340 0.000000
C370  C     C_R   0.713529 0.294551 0.543700 0.000000
C371  C     C_R   0.694877 0.280461 0.491931 0.000000
N57   N     N_R   0.667038 0.299345 0.471588 0.000000
C372  C     C_R   0.686640 0.309883 0.444247 0.000000
C373  C     C_R   0.673817 0.328090 0.414126 0.000000
C374  C     C_R   0.707934 0.348514 0.400926 0.000000
C375  C     C_R   0.756079 0.358445 0.425961 0.000000
C376  C     C_R   0.764342 0.333330 0.450412 0.000000
C377  C     C_R   0.724146 0.301391 0.449925 0.000000
N58   N     N_R   0.725315 0.274965 0.472541 0.000000
H225  H     H_    0.773481 0.394429 0.652192 0.000000
H226  H     H_    0.741908 0.332198 0.675494 0.000000
H227  H     H_    0.703252 0.246485 0.617407 0.000000
H228  H     H_    0.688721 0.223351 0.534458 0.000000
H229  H     H_    0.638840 0.326327 0.400980 0.000000
H230  H     H_    0.698657 0.360751 0.374830 0.000000
H231  H     H_    0.785565 0.380978 0.421661 0.000000
H232  H     H_    0.800719 0.338016 0.467884 0.000000
Br30  Br    Br    0.569706 0.407206 0.468758 0.000000
C378  C     C_R   0.517979 0.344404 0.427847 0.000000
C379  C     C_R   0.494337 0.326563 0.379081 0.000000
C380  C     C_R   0.447889 0.285836 0.350347 0.000000
C381  C     C_R   0.428123 0.261549 0.371339 0.000000
C382  C     C_R   0.454877 0.278203 0.420913 0.000000
C383  C     C_R   0.500107 0.320332 0.449125 0.000000
C384  C     C_R   0.535310 0.336450 0.498994 0.000000
N59   N     N_R   0.580848 0.338295 0.509855 0.000000
C385  C     C_R   0.600205 0.352261 0.557835 0.000000
C386  C     C_R   0.640371 0.352106 0.587068 0.000000
C387  C     C_R   0.659196 0.374890 0.636676 0.000000
C388  C     C_R   0.635094 0.393629 0.655275 0.000000
C389  C     C_R   0.588017 0.382237 0.624259 0.000000
C390  C     C_R   0.570251 0.361037 0.574844 0.000000
N60   N     N_R   0.525901 0.347341 0.537774 0.000000
H233  H     H_    0.512687 0.345414 0.363887 0.000000
H234  H     H_    0.427187 0.272931 0.311766 0.000000
H235  H     H_    0.391702 0.229834 0.347670 0.000000
H236  H     H_    0.440504 0.260307 0.438773 0.000000
H237  H     H_    0.657879 0.336270 0.571905 0.000000
H238  H     H_    0.692820 0.378521 0.661214 0.000000
H239  H     H_    0.649638 0.410949 0.694096 0.000000
H240  H     H_    0.566026 0.386911 0.639929 0.000000
Br31  Br    Br    0.516659 0.238065 0.473841 0.000000
C391  C     C_R   0.567901 0.230780 0.473133 0.000000
C392  C     C_R   0.595887 0.228176 0.511663 0.000000
C393  C     C_R   0.594571 0.185867 0.504192 0.000000
C394  C     C_R   0.567496 0.148488 0.458166 0.000000
C395  C     C_R   0.545132 0.154609 0.419005 0.000000
C396  C     C_R   0.549743 0.198366 0.427405 0.000000
C397  C     C_R   0.527362 0.209601 0.389939 0.000000
N61   N     N_R   0.486251 0.174940 0.343826 0.000000
C398  C     C_R   0.486707 0.201846 0.320991 0.000000
C399  C     C_R   0.454759 0.187129 0.273776 0.000000
C400  C     C_R   0.459378 0.221756 0.259081 0.000000
C401  C     C_R   0.501243 0.268037 0.288257 0.000000
C402  C     C_R   0.536072 0.281170 0.334334 0.000000
C403  C     C_R   0.525307 0.248989 0.351390 0.000000
N62   N     N_R   0.550785 0.256644 0.396639 0.000000
H241  H     H_    0.612153 0.255793 0.548133 0.000000
H242  H     H_    0.611937 0.180883 0.534533 0.000000
H243  H     H_    0.565693 0.115214 0.454188 0.000000
H244  H     H_    0.525510 0.126310 0.381926 0.000000
H245  H     H_    0.426442 0.149721 0.248606 0.000000
H246  H     H_    0.432708 0.211575 0.222921 0.000000
H247  H     H_    0.505952 0.293787 0.274895 0.000000
H248  H     H_    0.567486 0.317392 0.358464 0.000000
Br32  Br    Br    0.597331 0.388174 0.333358 0.000000
C404  C     C_R   0.666194 0.425518 0.377536 0.000000
C405  C     C_R   0.696119 0.435182 0.357023 0.000000
C406  C     C_R   0.746318 0.453159 0.383302 0.000000
C407  C     C_R   0.766500 0.461403 0.430306 0.000000
C408  C     C_R   0.737360 0.454934 0.452002 0.000000
C409  C     C_R   0.686934 0.437558 0.426434 0.000000
C410  C     C_R   0.660139 0.433318 0.454258 0.000000
N63   N     N_R   0.675466 0.478386 0.492149 0.000000
C411  C     C_R   0.687519 0.469702 0.529612 0.000000
C412  C     C_R   0.693343 0.495190 0.572571 0.000000
C413  C     C_R   0.709467 0.484019 0.609132 0.000000
C414  C     C_R   0.714617 0.444416 0.598682 0.000000
C415  C     C_R   0.692898 0.411341 0.550528 0.000000
C416  C     C_R   0.679197 0.424975 0.516787 0.000000
N64   N     N_R   0.654323 0.396998 0.468783 0.000000
H249  H     H_    0.679307 0.425522 0.318966 0.000000
H250  H     H_    0.769165 0.458300 0.366349 0.000000
H251  H     H_    0.804809 0.471077 0.449402 0.000000
H252  H     H_    0.753342 0.460526 0.488622 0.000000
H253  H     H_    0.680428 0.519430 0.573356 0.000000
H254  H     H_    0.716678 0.504386 0.645085 0.000000
H255  H     H_    0.729554 0.436590 0.627337 0.000000
H256  H     H_    0.687456 0.376046 0.538939 0.000000
Br33  Br    Br    0.813454 0.973805 0.849012 0.000000
C417  C     C_R   0.816238 0.955320 0.897511 0.000000
C418  C     C_R   0.772493 0.919669 0.889384 0.000000
C419  C     C_R   0.773169 0.898148 0.918539 0.000000
C420  C     C_R   0.817376 0.914743 0.958276 0.000000
C421  C     C_R   0.861215 0.950387 0.966509 0.000000
C422  C     C_R   0.861096 0.970277 0.935799 0.000000
C423  C     C_R   0.909564 0.007686 0.947480 0.000000
N65   N     N_R   0.948521 0.998660 0.960474 0.000000
C424  C     C_R   0.986830 0.042505 0.997547 0.000000
C425  C     C_R   0.034006 0.054222 0.026742 0.000000
C426  C     C_R   0.067724 0.100476 0.065433 0.000000
C427  C     C_R   0.051019 0.130951 0.079315 0.000000
C428  C     C_R   0.002671 0.118110 0.050434 0.000000
C429  C     C_R   0.972277 0.075588 0.006477 0.000000
N66   N     N_R   0.924253 0.056548 0.972188 0.000000
H257  H     H_    0.738013 0.905021 0.856950 0.000000
H258  H     H_    0.738999 0.867820 0.909801 0.000000
H259  H     H_    0.817662 0.898088 0.981273 0.000000
H260  H     H_    0.896122 0.962721 0.997156 0.000000
H261  H     H_    0.044064 0.027369 0.020922 0.000000
H262  H     H_    0.105932 0.111145 0.087785 0.000000
H263  H     H_    0.076160 0.165479 0.112257 0.000000
H264  H     H_    0.991543 0.142805 0.062712 0.000000
Br34  Br    Br    0.902886 0.939751 0.076928 0.000000
C430  C     C_R   0.966845 0.978567 0.086970 0.000000
C431  C     C_R   0.993728 0.027511 0.119002 0.000000
C432  C     C_R   0.041865 0.055681 0.129678 0.000000
C433  C     C_R   0.063221 0.034398 0.109019 0.000000
C434  C     C_R   0.034895 0.986182 0.074471 0.000000
C435  C     C_R   0.987550 0.957660 0.064727 0.000000
C436  C     C_R   0.957467 0.907031 0.027170 0.000000
N67   N     N_R   0.938574 0.868177 0.036620 0.000000
C437  C     C_R   0.898805 0.834236 0.991680 0.000000
C438  C     C_R   0.864348 0.788165 0.976872 0.000000
C439  C     C_R   0.826820 0.758133 0.928727 0.000000
C440  C     C_R   0.823705 0.775163 0.895897 0.000000
C441  C     C_R   0.860517 0.820988 0.910777 0.000000
C442  C     C_R   0.896512 0.850301 0.958398 0.000000
N68   N     N_R   0.934113 0.895809 0.978327 0.000000
H265  H     H_    0.978193 0.043363 0.137785 0.000000
H266  H     H_    0.063659 0.093792 0.155954 0.000000
H267  H     H_    0.101611 0.056005 0.118480 0.000000
H268  H     H_    0.049451 0.970506 0.054784 0.000000
H269  H     H_    0.867334 0.775846 0.002383 0.000000
H270  H     H_    0.801028 0.720583 0.915945 0.000000
H271  H     H_    0.795926 0.751069 0.857819 0.000000
H272  H     H_    0.865089 0.830866 0.884522 0.000000
Br35  Br    Br    0.048743 0.886586 0.011457 0.000000
C443  C     C_R   0.992017 0.836407 0.951216 0.000000
C444  C     C_R   0.955170 0.794820 0.944248 0.000000
C445  C     C_R   0.913783 0.762696 0.900124 0.000000
C446  C     C_R   0.904672 0.777805 0.866629 0.000000
C447  C     C_R   0.940301 0.819872 0.873098 0.000000
C448  C     C_R   0.985584 0.847384 0.914860 0.000000
C449  C     C_R   0.023367 0.894564 0.928091 0.000000
N69   N     N_R   0.016622 0.933701 0.939884 0.000000
C450  C     C_R   0.062750 0.970472 0.955888 0.000000
C451  C     C_R   0.076826 0.016900 0.964206 0.000000
C452  C     C_R   0.126200 0.048963 0.980078 0.000000
C453  C     C_R   0.160247 0.033902 0.985862 0.000000
C454  C     C_R   0.144820 0.986108 0.973766 0.000000
C455  C     C_R   0.095260 0.954302 0.956459 0.000000
N70   N     N_R   0.071390 0.905547 0.937622 0.000000
H273  H     H_    0.954556 0.788355 0.972897 0.000000
H274  H     H_    0.884699 0.730286 0.895102 0.000000
H275  H     H_    0.867198 0.759149 0.837892 0.000000
H276  H     H_    0.931416 0.831114 0.846084 0.000000
H277  H     H_    0.049433 0.027231 0.955324 0.000000
H278  H     H_    0.138180 0.085769 0.987146 0.000000
H279  H     H_    0.198787 0.059321 0.998466 0.000000
H280  H     H_    0.171183 0.974241 0.977413 0.000000
Br36  Br    Br    0.922275 0.989573 0.847014 0.000000
C456  C     C_R   0.971736 0.975234 0.845281 0.000000
C457  C     C_R   0.017690 0.007796 0.854451 0.000000
C458  C     C_R   0.054453 0.997510 0.860148 0.000000
C459  C     C_R   0.044317 0.953410 0.855505 0.000000
C460  C     C_R   0.997240 0.919766 0.843030 0.000000
C461  C     C_R   0.960430 0.929802 0.835284 0.000000
C462  C     C_R   0.910639 0.895468 0.822217 0.000000
N71   N     N_R   0.898664 0.894961 0.858294 0.000000
C463  C     C_R   0.848357 0.873497 0.832946 0.000000
C464  C     C_R   0.814927 0.861798 0.849011 0.000000
C465  C     C_R   0.764361 0.836355 0.816198 0.000000
C466  C     C_R   0.748219 0.829343 0.769584 0.000000
C467  C     C_R   0.782409 0.843104 0.754425 0.000000
C468  C     C_R   0.831881 0.862550 0.785401 0.000000
N72   N     N_R   0.870027 0.874514 0.775987 0.000000
H281  H     H_    0.024947 0.040411 0.853755 0.000000
H282  H     H_    0.090809 0.023882 0.868365 0.000000
H283  H     H_    0.073382 0.945678 0.862018 0.000000
H284  H     H_    0.989981 0.887084 0.843493 0.000000
H285  H     H_    0.827505 0.870721 0.886163 0.000000
H286  H     H_    0.737267 0.823342 0.827332 0.000000
H287  H     H_    0.708647 0.810093 0.743966 0.000000
H288  H     H_    0.768815 0.829920 0.716922 0.000000
Br37  Br    Br    0.682008 0.708066 0.184587 0.000000
C469  C     C_R   0.628990 0.656104 0.124585 0.000000
C470  C     C_R   0.604251 0.670285 0.096304 0.000000
C471  C     C_R   0.593557 0.654571 0.049121 0.000000
C472  C     C_R   0.605281 0.622009 0.029967 0.000000
C473  C     C_R   0.628233 0.605901 0.058250 0.000000
C474  C     C_R   0.634952 0.618809 0.104052 0.000000
C475  C     C_R   0.651718 0.595786 0.131341 0.000000
N73   N     N_R   0.690052 0.587368 0.132542 0.000000
C476  C     C_R   0.691862 0.565680 0.160192 0.000000
C477  C     C_R   0.725014 0.551311 0.174371 0.000000
C478  C     C_R   0.727420 0.536109 0.208543 0.000000
C479  C     C_R   0.692344 0.529703 0.223106 0.000000
C480  C     C_R   0.656883 0.541417 0.206183 0.000000
C481  C     C_R   0.657531 0.561476 0.175463 0.000000
N74   N     N_R   0.629888 0.579950 0.157287 0.000000
H289  H     H_    0.596751 0.696990 0.112838 0.000000
H290  H     H_    0.577491 0.668827 0.027798 0.000000
H291  H     H_    0.596978 0.610578 0.993054 0.000000
H292  H     H_    0.642563 0.584252 0.045515 0.000000
H293  H     H_    0.751914 0.556295 0.162340 0.000000
H294  H     H_    0.755806 0.527921 0.222864 0.000000
H295  H     H_    0.693072 0.516184 0.248755 0.000000
H296  H     H_    0.632576 0.536391 0.220569 0.000000
Br38  Br    Br    0.420860 0.525969 0.108908 0.000000
C482  C     C_R   0.437394 0.581361 0.161711 0.000000
C483  C     C_R   0.410737 0.603492 0.152200 0.000000
C484  C     C_R   0.425185 0.647450 0.187486 0.000000
C485  C     C_R   0.467088 0.669300 0.231857 0.000000
C486  C     C_R   0.490491 0.644698 0.242696 0.000000
C487  C     C_R   0.476592 0.600882 0.207892 0.000000
C488  C     C_R   0.502212 0.575108 0.219478 0.000000
N75   N     N_R   0.493602 0.551842 0.246915 0.000000
C489  C     C_R   0.503479 0.516579 0.229679 0.000000
C490  C     C_R   0.500500 0.479310 0.239475 0.000000
C491  C     C_R   0.517801 0.451114 0.221125 0.000000
C492  C     C_R   0.540304 0.461637 0.194732 0.000000
C493  C     C_R   0.540610 0.497289 0.183126 0.000000
C494  C     C_R   0.520297 0.521791 0.198425 0.000000
N76   N     N_R   0.522877 0.559419 0.192181 0.000000
H297  H     H_    0.380523 0.587841 0.116040 0.000000
H298  H     H_    0.405544 0.665835 0.179648 0.000000
H299  H     H_    0.479780 0.704649 0.259448 0.000000
H300  H     H_    0.517777 0.658797 0.279310 0.000000
H301  H     H_    0.489776 0.473405 0.264191 0.000000
H302  H     H_    0.517092 0.423208 0.230717 0.000000
H303  H     H_    0.557242 0.442107 0.183163 0.000000
H304  H     H_    0.558924 0.509574 0.164824 0.000000
Br39  Br    Br    0.625646 0.610036 0.262371 0.000000
C495  C     C_R   0.688377 0.655091 0.278784 0.000000
C496  C     C_R   0.727619 0.650395 0.303043 0.000000
C497  C     C_R   0.774794 0.690255 0.332941 0.000000
C498  C     C_R   0.782111 0.733721 0.336016 0.000000
C499  C     C_R   0.742796 0.737155 0.309609 0.000000
C500  C     C_R   0.695174 0.698088 0.280734 0.000000
C501  C     C_R   0.652221 0.703122 0.255764 0.000000
N77   N     N_R   0.607531 0.664576 0.212442 0.000000
C502  C     C_R   0.580123 0.684570 0.206501 0.000000
C503  C     C_R   0.532065 0.660562 0.170853 0.000000
C504  C     C_R   0.509084 0.686274 0.165019 0.000000
C505  C     C_R   0.530025 0.731264 0.202899 0.000000
C506  C     C_R   0.575878 0.751775 0.243277 0.000000
C507  C     C_R   0.604892 0.731542 0.241725 0.000000
N78   N     N_R   0.653622 0.747312 0.272928 0.000000
H305  H     H_    0.720627 0.616665 0.302858 0.000000
H306  H     H_    0.805643 0.687471 0.353330 0.000000
H307  H     H_    0.819458 0.764527 0.356460 0.000000
H308  H     H_    0.749283 0.770659 0.311908 0.000000
H309  H     H_    0.513862 0.622511 0.146551 0.000000
H310  H     H_    0.472663 0.669530 0.133854 0.000000
H311  H     H_    0.509776 0.749958 0.201931 0.000000
H312  H     H_    0.587206 0.784364 0.271365 0.000000
Br40  Br    Br    0.548856 0.451522 0.086907 0.000000
C508  C     C_R   0.485271 0.440537 0.075343 0.000000
C509  C     C_R   0.456821 0.406509 0.084475 0.000000
C510  C     C_R   0.406931 0.390365 0.067156 0.000000
C511  C     C_R   0.385095 0.406337 0.038374 0.000000
C512  C     C_R   0.413961 0.441057 0.030477 0.000000
C513  C     C_R   0.464803 0.461057 0.051952 0.000000
C514  C     C_R   0.492551 0.499962 0.043840 0.000000
N79   N     N_R   0.514211 0.548848 0.077980 0.000000
C515  C     C_R   0.500590 0.566228 0.046883 0.000000
C516  C     C_R   0.500205 0.608481 0.055416 0.000000
C517  C     C_R   0.485461 0.618628 0.017794 0.000000
C518  C     C_R   0.470313 0.586428 0.971512 0.000000
C519  C     C_R   0.462208 0.540985 0.961755 0.000000
C520  C     C_R   0.478865 0.532306 0.999463 0.000000
N80   N     N_R   0.473983 0.490238 0.995368 0.000000
H313  H     H_    0.472744 0.389753 0.102162 0.000000
H314  H     H_    0.384466 0.363035 0.073441 0.000000
H315  H     H_    0.345590 0.392381 0.022840 0.000000
H316  H     H_    0.397276 0.454479 0.008853 0.000000
H317  H     H_    0.515770 0.636864 0.089997 0.000000
H318  H     H_    0.488656 0.653279 0.025328 0.000000
H319  H     H_    0.460413 0.595249 0.942459 0.000000
H320  H     H_    0.443135 0.512538 0.925089 0.000000
Br41  Br    Br    0.889950 0.726605 0.769856 0.000000
C521  C     C_R   0.838119 0.730416 0.739641 0.000000
C522  C     C_R   0.800197 0.713585 0.749479 0.000000
C523  C     C_R   0.764142 0.723718 0.736013 0.000000
C524  C     C_R   0.764989 0.747379 0.709611 0.000000
C525  C     C_R   0.805106 0.766742 0.702208 0.000000
C526  C     C_R   0.842929 0.757418 0.716616 0.000000
C527  C     C_R   0.886336 0.775940 0.707633 0.000000
N81   N     N_R   0.899035 0.816494 0.700332 0.000000
C528  C     C_R   0.931553 0.815491 0.684541 0.000000
C529  C     C_R   0.955593 0.846118 0.670222 0.000000
C530  C     C_R   0.991421 0.842273 0.659987 0.000000
C531  C     C_R   0.002358 0.807586 0.663466 0.000000
C532  C     C_R   0.978861 0.777626 0.679090 0.000000
C533  C     C_R   0.941147 0.779756 0.686097 0.000000
N82   N     N_R   0.914138 0.753284 0.700914 0.000000
H321  H     H_    0.800450 0.694796 0.770463 0.000000
H322  H     H_    0.734742 0.712133 0.744830 0.000000
H323  H     H_    0.733939 0.752238 0.697022 0.000000
H324  H     H_    0.805561 0.787909 0.683926 0.000000
H325  H     H_    0.945390 0.871550 0.664874 0.000000
H326  H     H_    0.010595 0.866194 0.648622 0.000000
H327  H     H_    0.030640 0.805471 0.655474 0.000000
H328  H     H_    0.992250 0.755698 0.689010 0.000000
Br42  Br    Br    0.882629 0.559404 0.677708 0.000000
C534  C     C_R   0.946493 0.588102 0.732110 0.000000
C535  C     C_R   0.947956 0.573961 0.767176 0.000000
C536  C     C_R   0.990269 0.600299 0.812244 0.000000
C537  C     C_R   0.032246 0.638767 0.821033 0.000000
C538  C     C_R   0.032401 0.649532 0.784233 0.000000
C539  C     C_R   0.989137 0.626131 0.740202 0.000000
C540  C     C_R   0.990124 0.638896 0.701678 0.000000
N83   N     N_R   0.015466 0.627798 0.677648 0.000000
C541  C     C_R   0.001686 0.640492 0.642925 0.000000
C542  C     C_R   0.015079 0.638015 0.607809 0.000000
C543  C     C_R   0.996162 0.652097 0.574841 0.000000
C544  C     C_R   0.967420 0.671972 0.579812 0.000000
C545  C     C_R   0.954701 0.674763 0.615694 0.000000
C546  C     C_R   0.971797 0.658953 0.646757 0.000000
N84   N     N_R   0.963975 0.660253 0.684358 0.000000
H329  H     H_    0.914408 0.544597 0.760606 0.000000
H330  H     H_    0.990604 0.590642 0.840454 0.000000
H331  H     H_    0.066108 0.657826 0.855392 0.000000
H332  H     H_    0.067197 0.674999 0.789637 0.000000
H333  H     H_    0.043796 0.630566 0.608554 0.000000
H334  H     H_    0.007141 0.651147 0.547539 0.000000
H335  H     H_    0.954729 0.685208 0.555453 0.000000
H336  H     H_    0.931281 0.688507 0.619207 0.000000
Br43  Br    Br    0.078582 0.760194 0.801427 0.000000
C547  C     C_R   0.066614 0.808530 0.796368 0.000000
C548  C     C_R   0.089878 0.841870 0.784456 0.000000
C549  C     C_R   0.072921 0.871232 0.776743 0.000000
C550  C     C_R   0.031875 0.865796 0.780480 0.000000
C551  C     C_R   0.009599 0.833028 0.793778 0.000000
C552  C     C_R   0.029664 0.807089 0.804254 0.000000
C553  C     C_R   0.011632 0.774730 0.821400 0.000000
N85   N     N_R   0.974340 0.726400 0.789669 0.000000
C554  C     C_R   0.973443 0.710034 0.822050 0.000000
C555  C     C_R   0.941642 0.665009 0.812702 0.000000
C556  C     C_R   0.941823 0.656777 0.850875 0.000000
C557  C     C_R   0.973576 0.694182 0.898057 0.000000
C558  C     C_R   0.005547 0.739950 0.907160 0.000000
C559  C     C_R   0.006845 0.746567 0.869078 0.000000
N86   N     N_R   0.034461 0.788293 0.870645 0.000000
H337  H     H_    0.121866 0.846299 0.782352 0.000000
H338  H     H_    0.090638 0.897052 0.766366 0.000000
H339  H     H_    0.016508 0.886108 0.771310 0.000000
H340  H     H_    0.974607 0.824417 0.792604 0.000000
H341  H     H_    0.918758 0.636186 0.776552 0.000000
H342  H     H_    0.917034 0.620985 0.843817 0.000000
H343  H     H_    0.972678 0.687157 0.927401 0.000000
H344  H     H_    0.027439 0.770621 0.942821 0.000000
Br44  Br    Br    0.846467 0.681058 0.560896 0.000000
C560  C     C_R   0.838730 0.620621 0.552717 0.000000
C561  C     C_R   0.854680 0.600811 0.523332 0.000000
C562  C     C_R   0.859862 0.562434 0.522671 0.000000
C563  C     C_R   0.843271 0.540004 0.546841 0.000000
C564  C     C_R   0.822299 0.556483 0.571955 0.000000
C565  C     C_R   0.822733 0.598566 0.577853 0.000000
C566  C     C_R   0.808471 0.617847 0.612895 0.000000
N87   N     N_R   0.841122 0.636899 0.662659 0.000000
C567  C     C_R   0.807937 0.622220 0.677939 0.000000
C568  C     C_R   0.816874 0.619194 0.719992 0.000000
C569  C     C_R   0.779310 0.603641 0.730736 0.000000
C570  C     C_R   0.732143 0.590342 0.698694 0.000000
C571  C     C_R   0.721790 0.587962 0.654117 0.000000
C572  C     C_R   0.759851 0.602303 0.642578 0.000000
N88   N     N_R   0.757444 0.596488 0.598991 0.000000
H345  H     H_    0.867059 0.618107 0.503736 0.000000
H346  H     H_    0.875899 0.549407 0.502354 0.000000
H347  H     H_    0.844257 0.507914 0.544030 0.000000
H348  H     H_    0.806817 0.537104 0.588655 0.000000
H349  H     H_    0.852614 0.629623 0.745161 0.000000
H350  H     H_    0.787139 0.602829 0.764623 0.000000
H351  H     H_    0.702216 0.577867 0.706683 0.000000
H352  H     H_    0.682965 0.570285 0.628870 0.000000
Br45  Br    Br    0.717198 0.938239 0.957498 0.000000
C573  C     C_R   0.693431 0.946804 0.903141 0.000000
C574  C     C_R   0.654692 0.905860 0.859849 0.000000
C575  C     C_R   0.646287 0.905263 0.816341 0.000000
C576  C     C_R   0.680268 0.943872 0.816674 0.000000
C577  C     C_R   0.719350 0.983814 0.860374 0.000000
C578  C     C_R   0.722702 0.988765 0.904106 0.000000
C579  C     C_R   0.763433 0.033417 0.951363 0.000000
N89   N     N_R   0.755452 0.043211 0.991759 0.000000
C580  C     C_R   0.799010 0.051887 0.025102 0.000000
C581  C     C_R   0.806953 0.047263 0.065252 0.000000
C582  C     C_R   0.850694 0.052912 0.095476 0.000000
C583  C     C_R   0.883465 0.053899 0.079381 0.000000
C584  C     C_R   0.871330 0.049502 0.034098 0.000000
C585  C     C_R   0.831301 0.052766 0.008696 0.000000
N90   N     N_R   0.813679 0.047924 0.963658 0.000000
H353  H     H_    0.633146 0.873075 0.859998 0.000000
H354  H     H_    0.616442 0.873059 0.782348 0.000000
H355  H     H_    0.677528 0.942273 0.782849 0.000000
H356  H     H_    0.747686 0.011025 0.860002 0.000000
H357  H     H_    0.776082 0.031379 0.067799 0.000000
H358  H     H_    0.856617 0.051181 0.128645 0.000000
H359  H     H_    0.916468 0.054449 0.100214 0.000000
H360  H     H_    0.895227 0.045337 0.021847 0.000000
Br46  Br    Br    0.647732 0.054332 0.109431 0.000000
C586  C     C_R   0.648319 0.100436 0.089209 0.000000
C587  C     C_R   0.670956 0.148337 0.121410 0.000000
C588  C     C_R   0.656511 0.177284 0.108365 0.000000
C589  C     C_R   0.622994 0.159072 0.061174 0.000000
C590  C     C_R   0.601512 0.111257 0.028133 0.000000
C591  C     C_R   0.616116 0.082693 0.042124 0.000000
C592  C     C_R   0.598238 0.033490 0.008695 0.000000
N91   N     N_R   0.629737 0.019840 0.997721 0.000000
C593  C     C_R   0.597172 0.972727 0.965284 0.000000
C594  C     C_R   0.606508 0.940529 0.940669 0.000000
C595  C     C_R   0.566624 0.894497 0.905203 0.000000
C596  C     C_R   0.518235 0.884084 0.892097 0.000000
C597  C     C_R   0.510410 0.918856 0.916834 0.000000
C598  C     C_R   0.549862 0.960196 0.955930 0.000000
N92   N     N_R   0.548388 0.997001 0.983606 0.000000
H361  H     H_    0.702239 0.164367 0.156669 0.000000
H362  H     H_    0.672930 0.214572 0.134496 0.000000
H363  H     H_    0.612989 0.182629 0.051690 0.000000
H364  H     H_    0.570720 0.095148 0.992576 0.000000
H365  H     H_    0.643799 0.952307 0.948897 0.000000
H366  H     H_    0.572811 0.867919 0.885181 0.000000
H367  H     H_    0.487263 0.850070 0.860857 0.000000
H368  H     H_    0.476000 0.918091 0.905796 0.000000
Br47  Br    Br    0.799407 0.145038 0.012426 0.000000
C599  C     C_R   0.742129 0.112373 0.949604 0.000000
C600  C     C_R   0.744500 0.089752 0.909922 0.000000
C601  C     C_R   0.704149 0.065397 0.863654 0.000000
C602  C     C_R   0.661064 0.063762 0.857931 0.000000
C603  C     C_R   0.661358 0.092181 0.897382 0.000000
C604  C     C_R   0.700836 0.114821 0.943004 0.000000
C605  C     C_R   0.698998 0.139674 0.984831 0.000000
N93   N     N_R   0.712440 0.130371 0.023957 0.000000
C606  C     C_R   0.727840 0.173382 0.060739 0.000000
C607  C     C_R   0.753546 0.190302 0.109968 0.000000
C608  C     C_R   0.767597 0.236239 0.141817 0.000000
C609  C     C_R   0.755931 0.264875 0.124241 0.000000
C610  C     C_R   0.735285 0.250042 0.075074 0.000000
C611  C     C_R   0.720481 0.203946 0.043709 0.000000
N94   N     N_R   0.701997 0.184075 0.995234 0.000000
H369  H     H_    0.779748 0.093053 0.917286 0.000000
H370  H     H_    0.705572 0.047052 0.832027 0.000000
H371  H     H_    0.627781 0.041616 0.822577 0.000000
H372  H     H_    0.627842 0.091135 0.893704 0.000000
H373  H     H_    0.756647 0.166869 0.124274 0.000000
H374  H     H_    0.784976 0.248566 0.180491 0.000000
H375  H     H_    0.765688 0.300160 0.149360 0.000000
H376  H     H_    0.733365 0.275264 0.062240 0.000000
Br48  Br    Br    0.604143 0.936742 0.038514 0.000000
C612  C     C_R   0.659755 0.938410 0.037234 0.000000
C613  C     C_R   0.650624 0.894582 0.006268 0.000000
C614  C     C_R   0.688875 0.886209 0.012541 0.000000
C615  C     C_R   0.736049 0.922534 0.049487 0.000000
C616  C     C_R   0.744179 0.964051 0.082943 0.000000
C617  C     C_R   0.707181 0.974767 0.075316 0.000000
C618  C     C_R   0.723103 0.025326 0.107428 0.000000
N95   N     N_R   0.732594 0.059830 0.090868 0.000000
C619  C     C_R   0.776426 0.097828 0.128940 0.000000
C620  C     C_R   0.809928 0.134662 0.126670 0.000000
C621  C     C_R   0.856500 0.167829 0.166844 0.000000
C622  C     C_R   0.870613 0.160590 0.206522 0.000000
C623  C     C_R   0.838142 0.120185 0.205627 0.000000
C624  C     C_R   0.790464 0.089168 0.167145 0.000000
N96   N     N_R   0.755725 0.044768 0.156697 0.000000
H377  H     H_    0.612735 0.865897 0.978451 0.000000
H378  H     H_    0.682458 0.852793 0.987185 0.000000
H379  H     H_    0.767559 0.920877 0.049900 0.000000
H380  H     H_    0.781600 0.991075 0.112394 0.000000
H381  H     H_    0.799639 0.137831 0.094130 0.000000
H382  H     H_    0.881908 0.198867 0.166970 0.000000
H383  H     H_    0.907458 0.186128 0.238098 0.000000
H384  H     H_    0.849507 0.115866 0.236310 0.000000
Br49  Br    Br    0.217555 0.588753 0.296228 0.000000
C625  C     C_R   0.215326 0.635654 0.278175 0.000000
C626  C     C_R   0.251611 0.658165 0.267568 0.000000
C627  C     C_R   0.289824 0.705435 0.298567 0.000000
C628  C     C_R   0.294604 0.727201 0.342555 0.000000
C629  C     C_R   0.254687 0.705926 0.348273 0.000000
C630  C     C_R   0.210002 0.664804 0.310663 0.000000
C631  C     C_R   0.162359 0.648047 0.311844 0.000000
N97   N     N_R   0.113917 0.611729 0.271347 0.000000
C632  C     C_R   0.085523 0.617254 0.290530 0.000000
C633  C     C_R   0.036263 0.585845 0.269686 0.000000
C634  C     C_R   0.013630 0.590371 0.297354 0.000000
C635  C     C_R   0.038868 0.631000 0.342146 0.000000
C636  C     C_R   0.089163 0.664256 0.362518 0.000000
C637  C     C_R   0.112783 0.654538 0.337093 0.000000
N98   N     N_R   0.162436 0.674706 0.353033 0.000000
H385  H     H_    0.253067 0.638988 0.237083 0.000000
H386  H     H_    0.317624 0.724349 0.290604 0.000000
H387  H     H_    0.326932 0.762392 0.370692 0.000000
H388  H     H_    0.259517 0.725083 0.381476 0.000000
H389  H     H_    0.017379 0.557421 0.233178 0.000000
H390  H     H_    0.976260 0.562156 0.284278 0.000000
H391  H     H_    0.020859 0.633565 0.363757 0.000000
H392  H     H_    0.109550 0.691041 0.400009 0.000000
Br50  Br    Br    0.374975 0.899237 0.598250 0.000000
C638  C     C_R   0.373150 0.840005 0.577019 0.000000
C639  C     C_R   0.419109 0.845483 0.586125 0.000000
C640  C     C_R   0.427885 0.809466 0.587927 0.000000
C641  C     C_R   0.389043 0.766399 0.575948 0.000000
C642  C     C_R   0.341408 0.758518 0.557655 0.000000
C643  C     C_R   0.332180 0.794518 0.559964 0.000000
C644  C     C_R   0.280102 0.782619 0.546884 0.000000
N99   N     N_R   0.269943 0.803529 0.582542 0.000000
C645  C     C_R   0.230269 0.804474 0.555142 0.000000
C646  C     C_R   0.217858 0.838111 0.570679 0.000000
C647  C     C_R   0.181233 0.839481 0.537123 0.000000
C648  C     C_R   0.160912 0.810237 0.488038 0.000000
C649  C     C_R   0.177872 0.780458 0.472710 0.000000
C650  C     C_R   0.212264 0.777803 0.506338 0.000000
N100  N     N_R   0.241755 0.761655 0.498300 0.000000
H393  H     H_    0.450131 0.880560 0.598294 0.000000
H394  H     H_    0.464944 0.815135 0.599097 0.000000
H395  H     H_    0.395419 0.737643 0.576934 0.000000
H396  H     H_    0.309723 0.723983 0.540180 0.000000
H397  H     H_    0.239062 0.865513 0.607940 0.000000
H398  H     H_    0.171294 0.866008 0.549104 0.000000
H399  H     H_    0.136046 0.814702 0.461930 0.000000
H400  H     H_    0.169197 0.764159 0.436002 0.000000
Br51  Br    Br    0.145228 0.756094 0.348894 0.000000
C651  C     C_R   0.163245 0.734796 0.303234 0.000000
C652  C     C_R   0.130070 0.698020 0.256733 0.000000
C653  C     C_R   0.147812 0.686676 0.225834 0.000000
C654  C     C_R   0.197533 0.714931 0.240200 0.000000
C655  C     C_R   0.229501 0.754198 0.286235 0.000000
C656  C     C_R   0.212175 0.761202 0.318447 0.000000
C657  C     C_R   0.241806 0.800750 0.367414 0.000000
N101  N     N_R   0.241679 0.843786 0.376029 0.000000
C658  C     C_R   0.256109 0.862956 0.423229 0.000000
C659  C     C_R   0.243142 0.893065 0.445790 0.000000
C660  C     C_R   0.254381 0.904789 0.492817 0.000000
C661  C     C_R   0.277558 0.885275 0.515350 0.000000
C662  C     C_R   0.284167 0.850266 0.489656 0.000000
C663  C     C_R   0.268308 0.836215 0.442467 0.000000
N102  N     N_R   0.254682 0.793064 0.408187 0.000000
H401  H     H_    0.090863 0.678818 0.245013 0.000000
H402  H     H_    0.121769 0.659119 0.189086 0.000000
H403  H     H_    0.210711 0.708047 0.214701 0.000000
H404  H     H_    0.268047 0.777923 0.297474 0.000000
H405  H     H_    0.218821 0.901760 0.425619 0.000000
H406  H     H_    0.244074 0.928016 0.511477 0.000000
H407  H     H_    0.285122 0.893143 0.551325 0.000000
H408  H     H_    0.300476 0.833138 0.504844 0.000000
Br52  Br    Br    0.178512 0.504859 0.387997 0.000000
C664  C     C_R   0.155647 0.543389 0.376642 0.000000
C665  C     C_R   0.105407 0.518102 0.360942 0.000000
C666  C     C_R   0.078390 0.539583 0.358648 0.000000
C667  C     C_R   0.104146 0.588020 0.377706 0.000000
C668  C     C_R   0.154764 0.614317 0.393523 0.000000
C669  C     C_R   0.182987 0.593452 0.393259 0.000000
C670  C     C_R   0.239077 0.628665 0.417566 0.000000
N103  N     N_R   0.277273 0.618397 0.434915 0.000000
C671  C     C_R   0.318682 0.662907 0.455390 0.000000
C672  C     C_R   0.367968 0.677799 0.481865 0.000000
C673  C     C_R   0.404406 0.722438 0.492347 0.000000
C674  C     C_R   0.391494 0.753296 0.480035 0.000000
C675  C     C_R   0.342356 0.741363 0.460669 0.000000
C676  C     C_R   0.306828 0.695952 0.448393 0.000000
N104  N     N_R   0.257527 0.677585 0.427090 0.000000
H409  H     H_    0.087573 0.480522 0.352340 0.000000
H410  H     H_    0.039752 0.520153 0.349495 0.000000
H411  H     H_    0.087269 0.605846 0.391278 0.000000
H412  H     H_    0.173762 0.652928 0.415544 0.000000
H413  H     H_    0.378844 0.653968 0.489810 0.000000
H414  H     H_    0.443314 0.733121 0.510056 0.000000
H415  H     H_    0.420286 0.788091 0.488717 0.000000
H416  H     H_    0.332401 0.766849 0.454765 0.000000
Br53  Br    Br    0.101626 0.325779 0.675444 0.000000
C677  C     C_R   0.153876 0.315399 0.683676 0.000000
C678  C     C_R   0.145429 0.273316 0.650606 0.000000
C679  C     C_R   0.182772 0.264173 0.657270 0.000000
C680  C     C_R   0.229551 0.299994 0.694115 0.000000
C681  C     C_R   0.238639 0.342888 0.725513 0.000000
C682  C     C_R   0.200633 0.349717 0.722368 0.000000
C683  C     C_R   0.213391 0.396039 0.757243 0.000000
N105  N     N_R   0.230277 0.436266 0.750749 0.000000
C684  C     C_R   0.246330 0.472130 0.794565 0.000000
C685  C     C_R   0.264605 0.520464 0.809315 0.000000
C686  C     C_R   0.274877 0.550263 0.854844 0.000000
C687  C     C_R   0.266540 0.531359 0.884718 0.000000
C688  C     C_R   0.251860 0.483415 0.870845 0.000000
C689  C     C_R   0.239930 0.454072 0.825092 0.000000
N106  N     N_R   0.219446 0.405660 0.803166 0.000000
H417  H     H_    0.111004 0.248124 0.617996 0.000000
H418  H     H_    0.175865 0.230910 0.631259 0.000000
H419  H     H_    0.259638 0.295540 0.697428 0.000000
H420  H     H_    0.275534 0.372631 0.751549 0.000000
H421  H     H_    0.263521 0.533899 0.784026 0.000000
H422  H     H_    0.286814 0.587903 0.865983 0.000000
H423  H     H_    0.274122 0.554710 0.920057 0.000000
H424  H     H_    0.250108 0.469408 0.895632 0.000000
Br54  Br    Br    0.099804 0.239677 0.825199 0.000000
C690  C     C_R   0.161856 0.267858 0.881277 0.000000
C691  C     C_R   0.181191 0.238961 0.887018 0.000000
C692  C     C_R   0.225916 0.257593 0.927810 0.000000
C693  C     C_R   0.248311 0.303386 0.965258 0.000000
C694  C     C_R   0.227324 0.331176 0.960705 0.000000
C695  C     C_R   0.185803 0.314892 0.917620 0.000000
C696  C     C_R   0.167329 0.347471 0.913399 0.000000
N107  N     N_R   0.177928 0.373755 0.888918 0.000000
C697  C     C_R   0.167012 0.408033 0.906853 0.000000
C698  C     C_R   0.164913 0.443203 0.894802 0.000000
C699  C     C_R   0.147015 0.469978 0.914249 0.000000
C700  C     C_R   0.129922 0.461194 0.944771 0.000000
C701  C     C_R   0.132618 0.426569 0.957042 0.000000
C702  C     C_R   0.151384 0.401705 0.938786 0.000000
N108  N     N_R   0.148498 0.362945 0.942785 0.000000
H425  H     H_    0.161992 0.202023 0.858533 0.000000
H426  H     H_    0.241482 0.235160 0.931682 0.000000
H427  H     H_    0.280898 0.316475 0.998937 0.000000
H428  H     H_    0.243077 0.365595 0.991586 0.000000
H429  H     H_    0.173676 0.450008 0.869149 0.000000
H430  H     H_    0.144320 0.496447 0.903624 0.000000
H431  H     H_    0.113117 0.480243 0.957528 0.000000
H432  H     H_    0.117018 0.415241 0.977911 0.000000
Br55  Br    Br    0.121001 0.378215 0.783133 0.000000
C703  C     C_R   0.062785 0.337854 0.777052 0.000000
C704  C     C_R   0.035627 0.355294 0.791210 0.000000
C705  C     C_R   0.990807 0.323505 0.783900 0.000000
C706  C     C_R   0.976972 0.275746 0.767427 0.000000
C707  C     C_R   0.006879 0.260118 0.757570 0.000000
C708  C     C_R   0.048280 0.290328 0.758798 0.000000
C709  C     C_R   0.075622 0.270987 0.741031 0.000000
N109  N     N_R   0.049142 0.226661 0.698028 0.000000
C710  C     C_R   0.086898 0.218683 0.700241 0.000000
C711  C     C_R   0.086390 0.181104 0.668493 0.000000
C712  C     C_R   0.128503 0.178309 0.680676 0.000000
C713  C     C_R   0.172279 0.215733 0.721758 0.000000
C714  C     C_R   0.173878 0.256665 0.749031 0.000000
C715  C     C_R   0.131342 0.255869 0.739918 0.000000
N110  N     N_R   0.127814 0.290941 0.767267 0.000000
H433  H     H_    0.049092 0.393396 0.808295 0.000000
H434  H     H_    0.968134 0.336168 0.793460 0.000000
H435  H     H_    0.943269 0.250421 0.763536 0.000000
H436  H     H_    0.000752 0.225986 0.753805 0.000000
H437  H     H_    0.054379 0.152866 0.635258 0.000000
H438  H     H_    0.127541 0.147559 0.657178 0.000000
H439  H     H_    0.204861 0.213180 0.729802 0.000000
H440  H     H_    0.206391 0.289941 0.778022 0.000000
Br56  Br    Br    0.299278 0.433311 0.972417 0.000000
C716  C     C_R   0.332185 0.472071 0.950515 0.000000
C717  C     C_R   0.349650 0.520786 0.973553 0.000000
C718  C     C_R   0.364082 0.548012 0.952267 0.000000
C719  C     C_R   0.360556 0.526000 0.907969 0.000000
C720  C     C_R   0.347631 0.478116 0.887653 0.000000
C721  C     C_R   0.333666 0.450983 0.908997 0.000000
C722  C     C_R   0.320861 0.400517 0.888472 0.000000
N111  N     N_R   0.358100 0.388731 0.899290 0.000000
C723  C     C_R   0.330536 0.341630 0.886153 0.000000
C724  C     C_R   0.346649 0.309707 0.885152 0.000000
C725  C     C_R   0.313034 0.262512 0.870710 0.000000
C726  C     C_R   0.262814 0.246617 0.851874 0.000000
C727  C     C_R   0.246470 0.278272 0.849241 0.000000
C728  C     C_R   0.280558 0.325919 0.867258 0.000000
N112  N     N_R   0.271626 0.361523 0.865733 0.000000
H441  H     H_    0.348944 0.536845 0.006510 0.000000
H442  H     H_    0.375331 0.585768 0.968655 0.000000
H443  H     H_    0.368526 0.546928 0.889826 0.000000
H444  H     H_    0.347102 0.461141 0.854658 0.000000
H445  H     H_    0.383491 0.319705 0.890951 0.000000
H446  H     H_    0.325306 0.237018 0.869952 0.000000
H447  H     H_    0.236008 0.208884 0.837594 0.000000
H448  H     H_    0.207434 0.265319 0.832568 0.000000
Br57  Br    Br    0.449673 0.618211 0.368320 0.000000
C729  C     C_R   0.489255 0.629627 0.428568 0.000000
C730  C     C_R   0.502139 0.671964 0.466061 0.000000
C731  C     C_R   0.513194 0.676631 0.511129 0.000000
C732  C     C_R   0.510344 0.638162 0.517833 0.000000
C733  C     C_R   0.497953 0.596098 0.480025 0.000000
C734  C     C_R   0.488448 0.590766 0.434447 0.000000
C735  C     C_R   0.468110 0.542225 0.392165 0.000000
N113  N     N_R   0.461578 0.534946 0.345764 0.000000
C736  C     C_R   0.436304 0.486871 0.320058 0.000000
C737  C     C_R   0.419817 0.460970 0.272087 0.000000
C738  C     C_R   0.400617 0.411733 0.252140 0.000000
C739  C     C_R   0.387093 0.388855 0.277375 0.000000
C740  C     C_R   0.398001 0.415977 0.324066 0.000000
C741  C     C_R   0.427453 0.465433 0.347196 0.000000
N114  N     N_R   0.448130 0.498874 0.394259 0.000000
H449  H     H_    0.497946 0.699446 0.458595 0.000000
H450  H     H_    0.521505 0.708939 0.540032 0.000000
H451  H     H_    0.517295 0.641188 0.552922 0.000000
H452  H     H_    0.492519 0.566607 0.486029 0.000000
H453  H     H_    0.424774 0.479359 0.251246 0.000000
H454  H     H_    0.392090 0.390810 0.215578 0.000000
H455  H     H_    0.367676 0.349790 0.260633 0.000000
H456  H     H_    0.387317 0.397496 0.342037 0.000000
Br58  Br    Br    0.336298 0.427789 0.480635 0.000000
C742  C     C_R   0.300985 0.417531 0.417880 0.000000
C743  C     C_R   0.263880 0.369830 0.385158 0.000000
C744  C     C_R   0.245639 0.353130 0.336402 0.000000
C745  C     C_R   0.263480 0.385012 0.320677 0.000000
C746  C     C_R   0.296597 0.433853 0.353133 0.000000
C747  C     C_R   0.316370 0.451997 0.402855 0.000000
C748  C     C_R   0.355291 0.504733 0.438868 0.000000
N115  N     N_R   0.342981 0.540314 0.454878 0.000000
C749  C     C_R   0.382638 0.571382 0.500212 0.000000
C750  C     C_R   0.385833 0.607388 0.536311 0.000000
C751  C     C_R   0.422925 0.628019 0.583684 0.000000
C752  C     C_R   0.452098 0.608261 0.594557 0.000000
C753  C     C_R   0.446467 0.570509 0.557612 0.000000
C754  C     C_R   0.416239 0.556611 0.510271 0.000000
N116  N     N_R   0.403845 0.517915 0.470661 0.000000
H457  H     H_    0.252990 0.344386 0.398316 0.000000
H458  H     H_    0.218405 0.315222 0.310775 0.000000
H459  H     H_    0.248611 0.371821 0.282147 0.000000
H460  H     H_    0.305012 0.456793 0.337957 0.000000
H461  H     H_    0.357543 0.616439 0.528389 0.000000
H462  H     H_    0.425324 0.655728 0.612697 0.000000
H463  H     H_    0.476735 0.620040 0.632077 0.000000
H464  H     H_    0.461221 0.549030 0.565655 0.000000
Br59  Br    Br    0.577957 0.474744 0.565908 0.000000
C755  C     C_R   0.537407 0.492773 0.584957 0.000000
C756  C     C_R   0.561842 0.532902 0.629950 0.000000
C757  C     C_R   0.535430 0.544974 0.650234 0.000000
C758  C     C_R   0.484360 0.515896 0.625878 0.000000
C759  C     C_R   0.459921 0.475949 0.580832 0.000000
C760  C     C_R   0.485641 0.463839 0.559302 0.000000
C761  C     C_R   0.456135 0.423216 0.508883 0.000000
N117  N     N_R   0.432756 0.429675 0.469973 0.000000
C762  C     C_R   0.397941 0.383758 0.435252 0.000000
C763  C     C_R   0.359766 0.368146 0.391170 0.000000
C764  C     C_R   0.329713 0.319089 0.358713 0.000000
C765  C     C_R   0.337992 0.286848 0.372156 0.000000
C766  C     C_R   0.374677 0.303861 0.418637 0.000000
C767  C     C_R   0.402648 0.351922 0.450217 0.000000
N118  N     N_R   0.438138 0.374415 0.497202 0.000000
H465  H     H_    0.602264 0.554307 0.649937 0.000000
H466  H     H_    0.554749 0.576531 0.685411 0.000000
H467  H     H_    0.463259 0.525605 0.641126 0.000000
H468  H     H_    0.420083 0.454613 0.561839 0.000000
H469  H     H_    0.353324 0.393992 0.382716 0.000000
H470  H     H_    0.300203 0.305971 0.322806 0.000000
H471  H     H_    0.315399 0.248472 0.346687 0.000000
H472  H     H_    0.382862 0.280802 0.430371 0.000000
Br60  Br    Br    0.626033 0.504438 0.418622 0.000000
C768  C     C_R   0.559294 0.466558 0.400331 0.000000
C769  C     C_R   0.527494 0.428068 0.353618 0.000000
C770  C     C_R   0.480820 0.394065 0.340156 0.000000
C771  C     C_R   0.467751 0.396248 0.375207 0.000000
C772  C     C_R   0.497603 0.436354 0.419948 0.000000
C773  C     C_R   0.542248 0.473395 0.432702 0.000000
C774  C     C_R   0.566964 0.515468 0.480827 0.000000
N119  N     N_R   0.618649 0.545316 0.514878 0.000000
C775  C     C_R   0.618107 0.576056 0.551222 0.000000
C776  C     C_R   0.657869 0.615235 0.593832 0.000000
C777  C     C_R   0.648824 0.639086 0.628255 0.000000
C778  C     C_R   0.601163 0.627581 0.617929 0.000000
C779  C     C_R   0.562010 0.590348 0.573394 0.000000
C780  C     C_R   0.570745 0.564679 0.540959 0.000000
N120  N     N_R   0.536428 0.526503 0.496638 0.000000
H473  H     H_    0.538731 0.424335 0.326591 0.000000
H474  H     H_    0.457428 0.362857 0.304226 0.000000
H475  H     H_    0.434173 0.366199 0.367613 0.000000
H476  H     H_    0.491094 0.435832 0.448561 0.000000
H477  H     H_    0.695370 0.626626 0.600978 0.000000
H478  H     H_    0.678711 0.667854 0.662903 0.000000
H479  H     H_    0.594619 0.647548 0.644613 0.000000
H480  H     H_    0.525468 0.580878 0.564415 0.000000
Br61  Br    Br    0.584934 0.174502 0.768992 0.000000
C781  C     C_R   0.527048 0.114059 0.717790 0.000000
C782  C     C_R   0.534403 0.089738 0.681807 0.000000
C783  C     C_R   0.496161 0.046624 0.641318 0.000000
C784  C     C_R   0.450129 0.026387 0.637330 0.000000
C785  C     C_R   0.442936 0.049406 0.673633 0.000000
C786  C     C_R   0.479625 0.093966 0.713323 0.000000
C787  C     C_R   0.462174 0.114167 0.745442 0.000000
N121  N     N_R   0.445772 0.087724 0.768173 0.000000
C788  C     C_R   0.401914 0.084956 0.758780 0.000000
C789  C     C_R   0.367265 0.060501 0.769166 0.000000
C790  C     C_R   0.324849 0.063339 0.757227 0.000000
C791  C     C_R   0.311308 0.078277 0.723604 0.000000
C792  C     C_R   0.344338 0.097327 0.708842 0.000000
C793  C     C_R   0.392391 0.107749 0.733005 0.000000
N122  N     N_R   0.432032 0.132407 0.728642 0.000000
H481  H     H_    0.571180 0.105260 0.685556 0.000000
H482  H     H_    0.502457 0.028715 0.613208 0.000000
H483  H     H_    0.419499 0.992704 0.605553 0.000000
H484  H     H_    0.407067 0.033238 0.670509 0.000000
H485  H     H_    0.373549 0.040678 0.787336 0.000000
H486  H     H_    0.299711 0.049280 0.769929 0.000000
H487  H     H_    0.274756 0.073928 0.708067 0.000000
H488  H     H_    0.332473 0.103049 0.678819 0.000000
Br62  Br    Br    0.436034 0.906838 0.800631 0.000000
C794  C     C_R   0.501021 0.955514 0.841988 0.000000
C795  C     C_R   0.532661 0.941223 0.834288 0.000000
C796  C     C_R   0.582616 0.970990 0.862824 0.000000
C797  C     C_R   0.599895 0.012994 0.901807 0.000000
C798  C     C_R   0.568827 0.029155 0.908267 0.000000
C799  C     C_R   0.517852 0.000698 0.878723 0.000000
C800  C     C_R   0.485282 0.019619 0.887601 0.000000
N123  N     N_R   0.468473 0.041591 0.861925 0.000000
C801  C     C_R   0.446763 0.057943 0.884952 0.000000
C802  C     C_R   0.428005 0.086543 0.878245 0.000000
C803  C     C_R   0.411639 0.103812 0.908606 0.000000
C804  C     C_R   0.417590 0.094906 0.947384 0.000000
C805  C     C_R   0.434270 0.064031 0.952451 0.000000
C806  C     C_R   0.450121 0.047113 0.921825 0.000000
N124  N     N_R   0.474721 0.023394 0.926019 0.000000
H489  H     H_    0.517361 0.905265 0.805926 0.000000
H490  H     H_    0.607649 0.959606 0.857761 0.000000
H491  H     H_    0.638784 0.032812 0.928876 0.000000
H492  H     H_    0.585731 0.063678 0.938155 0.000000
H493  H     H_    0.432887 0.101337 0.854967 0.000000
H494  H     H_    0.398754 0.128138 0.904888 0.000000
H495  H     H_    0.408273 0.111487 0.973273 0.000000
H496  H     H_    0.436730 0.055122 0.981212 0.000000
Br63  Br    Br    0.320678 0.957099 0.642039 0.000000
C807  C     C_R   0.306595 0.948728 0.689842 0.000000
C808  C     C_R   0.266631 0.951615 0.690570 0.000000
C809  C     C_R   0.260296 0.955426 0.729897 0.000000
C810  C     C_R   0.294584 0.957334 0.768514 0.000000
C811  C     C_R   0.333995 0.953276 0.767130 0.000000
C812  C     C_R   0.339192 0.946912 0.726869 0.000000
C813  C     C_R   0.378402 0.938121 0.723487 0.000000
N125  N     N_R   0.428815 0.974434 0.746874 0.000000
C814  C     C_R   0.448533 0.948693 0.731754 0.000000
C815  C     C_R   0.498103 0.963071 0.751455 0.000000
C816  C     C_R   0.511414 0.930718 0.733294 0.000000
C817  C     C_R   0.474887 0.882970 0.699803 0.000000
C818  C     C_R   0.424999 0.867681 0.683904 0.000000
C819  C     C_R   0.412573 0.900637 0.701236 0.000000
N126  N     N_R   0.367744 0.891424 0.697077 0.000000
H497  H     H_    0.241852 0.953486 0.661419 0.000000
H498  H     H_    0.230261 0.959883 0.731748 0.000000
H499  H     H_    0.290308 0.962633 0.799793 0.000000
H500  H     H_    0.363335 0.959563 0.798857 0.000000
H501  H     H_    0.525836 0.996946 0.784100 0.000000
H502  H     H_    0.550437 0.941728 0.748364 0.000000
H503  H     H_    0.485666 0.857159 0.688029 0.000000
H504  H     H_    0.396277 0.830422 0.658828 0.000000
Br64  Br    Br    0.549369 0.199834 0.847150 0.000000
C820  C     C_R   0.545298 0.178481 0.891766 0.000000
C821  C     C_R   0.516279 0.184315 0.910097 0.000000
C822  C     C_R   0.520718 0.180342 0.950639 0.000000
C823  C     C_R   0.545836 0.158850 0.964818 0.000000
C824  C     C_R   0.570622 0.146809 0.941877 0.000000
C825  C     C_R   0.570710 0.157520 0.905669 0.000000
C826  C     C_R   0.584760 0.135804 0.873067 0.000000
N127  N     N_R   0.549071 0.093929 0.829123 0.000000
C827  C     C_R   0.574829 0.091976 0.805813 0.000000
C828  C     C_R   0.556480 0.058230 0.759145 0.000000
C829  C     C_R   0.589194 0.057869 0.742532 0.000000
C830  C     C_R   0.638512 0.094691 0.770817 0.000000
C831  C     C_R   0.655477 0.130900 0.816105 0.000000
C832  C     C_R   0.623601 0.129765 0.834505 0.000000
N128  N     N_R   0.632042 0.159164 0.879036 0.000000
H505  H     H_    0.485207 0.184272 0.887190 0.000000
H506  H     H_    0.499103 0.187302 0.966821 0.000000
H507  H     H_    0.542289 0.148804 0.991314 0.000000
H508  H     H_    0.591673 0.131035 0.952811 0.000000
H509  H     H_    0.516897 0.033204 0.735181 0.000000
H510  H     H_    0.575743 0.030497 0.706474 0.000000
H511  H     H_    0.664077 0.095466 0.757283 0.000000
H512  H     H_    0.693297 0.157022 0.835320 0.000000
Br65  Br    Br    0.309710 0.422205 0.251532 0.000000
C833  C     C_R   0.316166 0.427178 0.198562 0.000000
C834  C     C_R   0.306269 0.386347 0.161633 0.000000
C835  C     C_R   0.320560 0.389828 0.127958 0.000000
C836  C     C_R   0.345389 0.434410 0.131643 0.000000
C837  C     C_R   0.353569 0.474895 0.167307 0.000000
C838  C     C_R   0.338654 0.471679 0.200784 0.000000
C839  C     C_R   0.348979 0.516592 0.237652 0.000000
N129  N     N_R   0.310596 0.526901 0.230831 0.000000
C840  C     C_R   0.336795 0.574985 0.248762 0.000000
C841  C     C_R   0.319361 0.605350 0.252318 0.000000
C842  C     C_R   0.350934 0.652240 0.263931 0.000000
C843  C     C_R   0.401264 0.670381 0.282258 0.000000
C844  C     C_R   0.418960 0.639976 0.284500 0.000000
C845  C     C_R   0.386230 0.592372 0.265472 0.000000
N130  N     N_R   0.397390 0.557892 0.263656 0.000000
H513  H     H_    0.290304 0.351951 0.161091 0.000000
H514  H     H_    0.313652 0.357956 0.099668 0.000000
H515  H     H_    0.356840 0.437291 0.105462 0.000000
H516  H     H_    0.371281 0.509453 0.168790 0.000000
H517  H     H_    0.282150 0.592250 0.246139 0.000000
H518  H     H_    0.337230 0.675398 0.259740 0.000000
H519  H     H_    0.426450 0.708056 0.294612 0.000000
H520  H     H_    0.457437 0.651991 0.298961 0.000000
Br66  Br    Br    0.147760 0.492359 0.055962 0.000000
C846  C     C_R   0.203673 0.486089 0.063766 0.000000
C847  C     C_R   0.236723 0.517029 0.055551 0.000000
C848  C     C_R   0.276969 0.514031 0.056569 0.000000
C849  C     C_R   0.284397 0.479977 0.066113 0.000000
C850  C     C_R   0.250750 0.447966 0.072596 0.000000
C851  C     C_R   0.210485 0.450712 0.072435 0.000000
C852  C     C_R   0.180186 0.415790 0.083339 0.000000
N131  N     N_R   0.199685 0.426964 0.132390 0.000000
C853  C     C_R   0.194037 0.384942 0.129400 0.000000
C854  C     C_R   0.205229 0.376489 0.167473 0.000000
C855  C     C_R   0.198110 0.331844 0.160530 0.000000
C856  C     C_R   0.181658 0.297260 0.114850 0.000000
C857  C     C_R   0.167819 0.305689 0.075808 0.000000
C858  C     C_R   0.171844 0.349814 0.082921 0.000000
N132  N     N_R   0.158179 0.366443 0.051141 0.000000
H521  H     H_    0.230253 0.543357 0.047336 0.000000
H522  H     H_    0.302015 0.537882 0.049197 0.000000
H523  H     H_    0.316155 0.477550 0.067793 0.000000
H524  H     H_    0.256051 0.420232 0.078291 0.000000
H525  H     H_    0.220241 0.405890 0.202276 0.000000
H526  H     H_    0.207003 0.324543 0.190771 0.000000
H527  H     H_    0.177069 0.262394 0.108999 0.000000
H528  H     H_    0.152382 0.275969 0.041785 0.000000
Br67  Br    Br    0.125101 0.415245 0.157373 0.000000
C859  C     C_R   0.111952 0.443569 0.203506 0.000000
C860  C     C_R   0.090921 0.418798 0.224249 0.000000
C861  C     C_R   0.075229 0.438050 0.253224 0.000000
C862  C     C_R   0.080173 0.481444 0.259893 0.000000
C863  C     C_R   0.102417 0.506071 0.240816 0.000000
C864  C     C_R   0.119257 0.488102 0.212736 0.000000
C865  C     C_R   0.142068 0.516040 0.191919 0.000000
N133  N     N_R   0.184144 0.519564 0.188254 0.000000
C866  C     C_R   0.191914 0.550329 0.169960 0.000000
C867  C     C_R   0.229118 0.566987 0.158775 0.000000
C868  C     C_R   0.234168 0.601863 0.144260 0.000000
C869  C     C_R   0.201522 0.618564 0.140209 0.000000
C870  C     C_R   0.163821 0.600982 0.150852 0.000000
C871  C     C_R   0.158738 0.566294 0.165380 0.000000
N134  N     N_R   0.126442 0.546085 0.179962 0.000000
H529  H     H_    0.085456 0.383889 0.217604 0.000000
H530  H     H_    0.056687 0.418127 0.267963 0.000000
H531  H     H_    0.062568 0.495206 0.276253 0.000000
H532  H     H_    0.105165 0.539024 0.247040 0.000000
H533  H     H_    0.253211 0.552479 0.160299 0.000000
H534  H     H_    0.263330 0.615763 0.135668 0.000000
H535  H     H_    0.205807 0.646004 0.129073 0.000000
H536  H     H_    0.140795 0.615920 0.148809 0.000000
Br68  Br    Br    0.338283 0.658357 0.359856 0.000000
C872  C     C_R   0.330989 0.603805 0.367870 0.000000
C873  C     C_R   0.373806 0.616726 0.405879 0.000000
C874  C     C_R   0.384184 0.583151 0.410021 0.000000
C875  C     C_R   0.365114 0.542778 0.368521 0.000000
C876  C     C_R   0.330179 0.534809 0.326601 0.000000
C877  C     C_R   0.303963 0.557095 0.329398 0.000000
C878  C     C_R   0.254569 0.520161 0.316311 0.000000
N135  N     N_R   0.247681 0.509635 0.352238 0.000000
C879  C     C_R   0.216761 0.461176 0.326843 0.000000
C880  C     C_R   0.201872 0.431190 0.346005 0.000000
C881  C     C_R   0.166830 0.382858 0.314809 0.000000
C882  C     C_R   0.152091 0.364283 0.266087 0.000000
C883  C     C_R   0.171172 0.393828 0.247979 0.000000
C884  C     C_R   0.203142 0.443536 0.278440 0.000000
N136  N     N_R   0.226187 0.480164 0.269332 0.000000
H537  H     H_    0.402635 0.654108 0.429700 0.000000
H538  H     H_    0.414082 0.592819 0.443198 0.000000
H539  H     H_    0.378139 0.518285 0.368355 0.000000
H540  H     H_    0.312098 0.500650 0.295907 0.000000
H541  H     H_    0.216870 0.445078 0.384787 0.000000
H542  H     H_    0.153035 0.359115 0.328794 0.000000
H543  H     H_    0.125684 0.325980 0.241775 0.000000
H544  H     H_    0.156075 0.376356 0.209759 0.000000
Br69  Br    Br    0.925119 0.508693 0.613453 0.000000
C885  C     C_R   0.941889 0.476282 0.570938 0.000000
C886  C     C_R   0.910897 0.456548 0.521752 0.000000
C887  C     C_R   0.920364 0.431496 0.488897 0.000000
C888  C     C_R   0.960892 0.426356 0.505598 0.000000
C889  C     C_R   0.989612 0.442887 0.554646 0.000000
C890  C     C_R   0.981647 0.469267 0.587774 0.000000
C891  C     C_R   0.010168 0.482299 0.638799 0.000000
N137  N     N_R   0.025534 0.526223 0.677291 0.000000
C892  C     C_R   0.019256 0.511164 0.709118 0.000000
C893  C     C_R   0.026926 0.538589 0.753095 0.000000
C894  C     C_R   0.022116 0.518712 0.783040 0.000000
C895  C     C_R   0.010040 0.471324 0.768026 0.000000
C896  C     C_R   0.003758 0.444255 0.723623 0.000000
C897  C     C_R   0.008021 0.464344 0.694080 0.000000
N138  N     N_R   0.003489 0.444411 0.649750 0.000000
H545  H     H_    0.879416 0.461238 0.509026 0.000000
H546  H     H_    0.897237 0.417448 0.450381 0.000000
H547  H     H_    0.970847 0.410476 0.480110 0.000000
H548  H     H_    0.020318 0.437857 0.568568 0.000000
H549  H     H_    0.037040 0.574821 0.763086 0.000000
H550  H     H_    0.029124 0.540362 0.818684 0.000000
H551  H     H_    0.008064 0.456158 0.792117 0.000000
H552  H     H_    0.001137 0.410337 0.715577 0.000000
Br70  Br    Br    0.175500 0.511724 0.690246 0.000000
C898  C     C_R   0.155754 0.483315 0.725486 0.000000
C899  C     C_R   0.168868 0.511907 0.772227 0.000000
C900  C     C_R   0.141566 0.495077 0.792258 0.000000
C901  C     C_R   0.099511 0.450318 0.763631 0.000000
C902  C     C_R   0.087583 0.420538 0.717251 0.000000
C903  C     C_R   0.118629 0.436121 0.699562 0.000000
C904  C     C_R   0.108722 0.407786 0.650662 0.000000
N139  N     N_R   0.065450 0.393426 0.609743 0.000000
C905  C     C_R   0.081292 0.388299 0.576297 0.000000
C906  C     C_R   0.066206 0.391259 0.533719 0.000000
C907  C     C_R   0.079234 0.372066 0.500848 0.000000
C908  C     C_R   0.115286 0.360494 0.515067 0.000000
C909  C     C_R   0.143010 0.375677 0.563706 0.000000
C910  C     C_R   0.125246 0.389210 0.593786 0.000000
N140  N     N_R   0.146455 0.404782 0.641722 0.000000
H553  H     H_    0.198774 0.548899 0.792086 0.000000
H554  H     H_    0.150986 0.517871 0.828654 0.000000
H555  H     H_    0.076876 0.437910 0.778812 0.000000
H556  H     H_    0.055297 0.384657 0.696375 0.000000
H557  H     H_    0.043880 0.406379 0.523788 0.000000
H558  H     H_    0.062889 0.368161 0.464824 0.000000
H559  H     H_    0.126550 0.346479 0.489878 0.000000
H560  H     H_    0.178098 0.377727 0.577154 0.000000
Br71  Br    Br    0.800766 0.239380 0.548635 0.000000
C911  C     C_R   0.830515 0.306283 0.581613 0.000000
C912  C     C_R   0.829356 0.327360 0.623238 0.000000
C913  C     C_R   0.856871 0.376979 0.652099 0.000000
C914  C     C_R   0.884058 0.405359 0.637909 0.000000
C915  C     C_R   0.885253 0.383636 0.596381 0.000000
C916  C     C_R   0.859866 0.334219 0.568858 0.000000
C917  C     C_R   0.870118 0.313825 0.530658 0.000000
N141  N     N_R   0.919054 0.334418 0.539451 0.000000
C918  C     C_R   0.910800 0.318359 0.493733 0.000000
C919  C     C_R   0.945710 0.327597 0.480635 0.000000
C920  C     C_R   0.932862 0.314291 0.432882 0.000000
C921  C     C_R   0.883088 0.289399 0.398514 0.000000
C922  C     C_R   0.847245 0.274603 0.411855 0.000000
C923  C     C_R   0.861708 0.290138 0.460069 0.000000
N142  N     N_R   0.833462 0.283573 0.481366 0.000000
H561  H     H_    0.809704 0.304586 0.635132 0.000000
H562  H     H_    0.857233 0.393389 0.685659 0.000000
H563  H     H_    0.905179 0.444305 0.659852 0.000000
H564  H     H_    0.907078 0.405036 0.585542 0.000000
H565  H     H_    0.981828 0.347294 0.509289 0.000000
H566  H     H_    0.961352 0.323809 0.422657 0.000000
H567  H     H_    0.872366 0.278733 0.360976 0.000000
H568  H     H_    0.809285 0.250455 0.384469 0.000000
Br72  Br    Br    0.019256 0.199945 0.597112 0.000000
C924  C     C_R   0.019726 0.237001 0.569053 0.000000
C925  C     C_R   0.037992 0.231690 0.537459 0.000000
C926  C     C_R   0.036601 0.255370 0.511239 0.000000
C927  C     C_R   0.015277 0.282576 0.516367 0.000000
C928  C     C_R   0.999312 0.289475 0.550145 0.000000
C929  C     C_R   0.001371 0.267038 0.578013 0.000000
C930  C     C_R   0.982572 0.275722 0.613558 0.000000
N143  N     N_R   0.965781 0.245160 0.633021 0.000000
C931  C     C_R   0.944295 0.264414 0.653169 0.000000
C932  C     C_R   0.913574 0.243314 0.668913 0.000000
C933  C     C_R   0.892298 0.266984 0.686646 0.000000
C934  C     C_R   0.901923 0.310425 0.687430 0.000000
C935  C     C_R   0.927437 0.327227 0.665021 0.000000
C936  C     C_R   0.949929 0.304824 0.649463 0.000000
N144  N     N_R   0.975461 0.314973 0.626010 0.000000
H569  H     H_    0.051530 0.207138 0.532058 0.000000
H570  H     H_    0.048700 0.250075 0.484658 0.000000
H571  H     H_    0.008517 0.296085 0.491205 0.000000
H572  H     H_    0.981510 0.309503 0.552041 0.000000
H573  H     H_    0.906931 0.209441 0.668252 0.000000
H574  H     H_    0.869429 0.252397 0.701238 0.000000
H575  H     H_    0.887133 0.329849 0.703580 0.000000
H576  H     H_    0.929012 0.356696 0.659005 0.000000
Br73  Br    Br    0.145606 0.999283 0.078556 0.000000
C937  C     C_R   0.200059 0.996603 0.074448 0.000000
C938  C     C_R   0.238695 0.038447 0.083079 0.000000
C939  C     C_R   0.276467 0.037772 0.074956 0.000000
C940  C     C_R   0.274954 0.994821 0.056989 0.000000
C941  C     C_R   0.236572 0.953110 0.048607 0.000000
C942  C     C_R   0.199747 0.953780 0.058706 0.000000
C943  C     C_R   0.162579 0.908014 0.051525 0.000000
N145  N     N_R   0.171408 0.896961 0.089975 0.000000
C944  C     C_R   0.151496 0.848706 0.065526 0.000000
C945  C     C_R   0.150286 0.817734 0.084197 0.000000
C946  C     C_R   0.134080 0.770555 0.053668 0.000000
C947  C     C_R   0.114939 0.753991 0.004265 0.000000
C948  C     C_R   0.113574 0.785023 0.985522 0.000000
C949  C     C_R   0.131286 0.831906 0.016484 0.000000
N146  N     N_R   0.134414 0.867398 0.005087 0.000000
H577  H     H_    0.238542 0.071726 0.095116 0.000000
H578  H     H_    0.306547 0.070579 0.081615 0.000000
H579  H     H_    0.304310 0.994045 0.050235 0.000000
H580  H     H_    0.236117 0.919666 0.035696 0.000000
H581  H     H_    0.158407 0.828565 0.120907 0.000000
H582  H     H_    0.133224 0.745710 0.067956 0.000000
H583  H     H_    0.100230 0.716464 0.980251 0.000000
H584  H     H_    0.099227 0.772866 0.947379 0.000000
Br74  Br    Br    0.096166 0.837143 0.188424 0.000000
C950  C     C_R   0.075577 0.816611 0.123599 0.000000
C951  C     C_R   0.057945 0.768884 0.093931 0.000000
C952  C     C_R   0.034556 0.749001 0.044991 0.000000
C953  C     C_R   0.021889 0.775187 0.025869 0.000000
C954  C     C_R   0.032943 0.820139 0.056248 0.000000
C955  C     C_R   0.066986 0.844609 0.104020 0.000000
C956  C     C_R   0.080436 0.894743 0.132088 0.000000
N147  N     N_R   0.043725 0.905654 0.130634 0.000000
C957  C     C_R   0.070448 0.954251 0.154733 0.000000
C958  C     C_R   0.053813 0.983358 0.170720 0.000000
C959  C     C_R   0.088212 0.031601 0.204187 0.000000
C960  C     C_R   0.137497 0.050734 0.215495 0.000000
C961  C     C_R   0.153511 0.020575 0.198288 0.000000
C962  C     C_R   0.119910 0.971852 0.169753 0.000000
N148  N     N_R   0.128698 0.935414 0.156263 0.000000
H585  H     H_    0.060040 0.745458 0.107676 0.000000
H586  H     H_    0.021208 0.711544 0.022127 0.000000
H587  H     H_    0.995696 0.756064 0.988160 0.000000
H588  H     H_    0.010822 0.834831 0.045049 0.000000
H589  H     H_    0.014530 0.968122 0.157880 0.000000
H590  H     H_    0.076121 0.054920 0.219295 0.000000
H591  H     H_    0.164263 0.088886 0.240466 0.000000
H592  H     H_    0.192340 0.034523 0.213475 0.000000
Br75  Br    Br    0.119009 0.894046 0.302782 0.000000
C963  C     C_R   0.160253 0.949685 0.306623 0.000000
C964  C     C_R   0.151659 0.985352 0.326561 0.000000
C965  C     C_R   0.169738 0.026429 0.323733 0.000000
C966  C     C_R   0.193303 0.029673 0.297484 0.000000
C967  C     C_R   0.198624 0.991859 0.273927 0.000000
C968  C     C_R   0.185779 0.952364 0.280847 0.000000
C969  C     C_R   0.201104 0.917491 0.260926 0.000000
N149  N     N_R   0.216685 0.893423 0.284593 0.000000
C970  C     C_R   0.237416 0.876928 0.259823 0.000000
C971  C     C_R   0.263615 0.854308 0.269764 0.000000
C972  C     C_R   0.274612 0.833273 0.235690 0.000000
C973  C     C_R   0.261888 0.837467 0.193834 0.000000
C974  C     C_R   0.243248 0.867046 0.188468 0.000000
C975  C     C_R   0.229628 0.885129 0.220977 0.000000
N150  N     N_R   0.207500 0.911323 0.219898 0.000000
H593  H     H_    0.127628 0.979255 0.342168 0.000000
H594  H     H_    0.162355 0.054104 0.338970 0.000000
H595  H     H_    0.205642 0.062115 0.294475 0.000000
H596  H     H_    0.214280 0.993076 0.250509 0.000000
H597  H     H_    0.272708 0.850223 0.301848 0.000000
H598  H     H_    0.292379 0.812890 0.241362 0.000000
H599  H     H_    0.270100 0.820518 0.167035 0.000000
H600  H     H_    0.239928 0.875823 0.159446 0.000000
Br76  Br    Br    0.354761 0.951828 0.283545 0.000000
C976  C     C_R   0.344756 0.945481 0.221733 0.000000
C977  C     C_R   0.348998 0.909639 0.193411 0.000000
C978  C     C_R   0.331206 0.894896 0.144682 0.000000
C979  C     C_R   0.311852 0.918102 0.124639 0.000000
C980  C     C_R   0.311227 0.956241 0.153576 0.000000
C981  C     C_R   0.327204 0.970286 0.202106 0.000000
C982  C     C_R   0.320063 0.008504 0.227413 0.000000
N151  N     N_R   0.273039 0.002752 0.203299 0.000000
C983  C     C_R   0.286845 0.048446 0.211440 0.000000
C984  C     C_R   0.257636 0.064544 0.191937 0.000000
C985  C     C_R   0.277789 0.113545 0.207875 0.000000
C986  C     C_R   0.326472 0.146029 0.245579 0.000000
C987  C     C_R   0.355533 0.129130 0.265393 0.000000
C988  C     C_R   0.336698 0.080240 0.244095 0.000000
N152  N     N_R   0.360237 0.057170 0.255863 0.000000
H601  H     H_    0.362319 0.889995 0.208602 0.000000
H602  H     H_    0.332304 0.865138 0.122311 0.000000
H603  H     H_    0.298599 0.907510 0.086633 0.000000
H604  H     H_    0.297549 0.975313 0.137996 0.000000
H605  H     H_    0.219689 0.039345 0.165401 0.000000
H606  H     H_    0.254636 0.126586 0.192781 0.000000
H607  H     H_    0.341027 0.184477 0.260539 0.000000
H608  H     H_    0.390798 0.153488 0.298545 0.000000
Br77  Br    Br    0.836002 0.674047 0.077823 0.000000
C989  C     C_R   0.835775 0.616570 0.053443 0.000000
C990  C     C_R   0.828706 0.591950 0.007930 0.000000
C991  C     C_R   0.836939 0.554076 0.997631 0.000000
C992  C     C_R   0.855681 0.543783 0.034104 0.000000
C993  C     C_R   0.863297 0.569737 0.079494 0.000000
C994  C     C_R   0.848994 0.603315 0.087296 0.000000
C995  C     C_R   0.856982 0.632737 0.134480 0.000000
N153  N     N_R   0.905096 0.664453 0.173613 0.000000
C996  C     C_R   0.896085 0.674202 0.210749 0.000000
C997  C     C_R   0.930538 0.703818 0.258647 0.000000
C998  C     C_R   0.915175 0.704159 0.292470 0.000000
C999  C     C_R   0.865688 0.673817 0.277054 0.000000
C1000 C     C_R   0.830653 0.649176 0.228239 0.000000
C1001 C     C_R   0.846198 0.650430 0.195121 0.000000
N154  N     N_R   0.818739 0.626681 0.145960 0.000000
H609  H     H_    0.818715 0.603462 0.981148 0.000000
H610  H     H_    0.831657 0.534614 0.962140 0.000000
H611  H     H_    0.865080 0.516059 0.027381 0.000000
H612  H     H_    0.879366 0.563060 0.108545 0.000000
H613  H     H_    0.968511 0.724438 0.268547 0.000000
H614  H     H_    0.941368 0.727160 0.330794 0.000000
H615  H     H_    0.853592 0.673694 0.303482 0.000000
H616  H     H_    0.792497 0.633151 0.218140 0.000000
Br78  Br    Br    0.050806 0.906002 0.216095 0.000000
C1002 C     C_R   0.006171 0.864427 0.225552 0.000000
C1003 C     C_R   0.007542 0.887038 0.268048 0.000000
C1004 C     C_R   0.993502 0.861928 0.290429 0.000000
C1005 C     C_R   0.983479 0.815586 0.273021 0.000000
C1006 C     C_R   0.978005 0.791746 0.228455 0.000000
C1007 C     C_R   0.987776 0.815376 0.202756 0.000000
C1008 C     C_R   0.975682 0.786046 0.152545 0.000000
N155  N     N_R   0.963931 0.798115 0.114576 0.000000
C1009 C     C_R   0.946764 0.755845 0.076364 0.000000
C1010 C     C_R   0.927989 0.745240 0.029112 0.000000
C1011 C     C_R   0.911635 0.699895 0.994079 0.000000
C1012 C     C_R   0.914798 0.665951 0.007606 0.000000
C1013 C     C_R   0.931711 0.676482 0.055710 0.000000
C1014 C     C_R   0.948842 0.721924 0.089645 0.000000
N156  N     N_R   0.967262 0.738939 0.137764 0.000000
H617  H     H_    0.026323 0.925907 0.287468 0.000000
H618  H     H_    0.997093 0.880596 0.324914 0.000000
H619  H     H_    0.977463 0.797574 0.293861 0.000000
H620  H     H_    0.963022 0.753842 0.212840 0.000000
H621  H     H_    0.931595 0.773865 0.021202 0.000000
H622  H     H_    0.898451 0.691701 0.956516 0.000000
H623  H     H_    0.902626 0.630643 0.980266 0.000000
H624  H     H_    0.930229 0.649202 0.066335 0.000000
Br79  Br    Br    0.080655 0.884341 0.382575 0.000000
C1015 C     C_R   0.066715 0.822380 0.372021 0.000000
C1016 C     C_R   0.053138 0.812868 0.404551 0.000000
C1017 C     C_R   0.035661 0.768285 0.401440 0.000000
C1018 C     C_R   0.031513 0.732448 0.364977 0.000000
C1019 C     C_R   0.045894 0.741513 0.332817 0.000000
C1020 C     C_R   0.063696 0.786236 0.334239 0.000000
C1021 C     C_R   0.077416 0.789472 0.295293 0.000000
N157  N     N_R   0.043855 0.754282 0.245244 0.000000
C1022 C     C_R   0.075764 0.760200 0.228500 0.000000
C1023 C     C_R   0.065450 0.733972 0.182644 0.000000
C1024 C     C_R   0.104122 0.736760 0.174364 0.000000
C1025 C     C_R   0.151677 0.769781 0.210272 0.000000
C1026 C     C_R   0.160536 0.797069 0.255461 0.000000
C1027 C     C_R   0.122553 0.794390 0.262956 0.000000
N158  N     N_R   0.127202 0.818697 0.305625 0.000000
H625  H     H_    0.055154 0.841265 0.432491 0.000000
H626  H     H_    0.024187 0.761235 0.426625 0.000000
H627  H     H_    0.015456 0.696742 0.360911 0.000000
H628  H     H_    0.044349 0.712764 0.306535 0.000000
H629  H     H_    0.028660 0.714049 0.152973 0.000000
H630  H     H_    0.098443 0.714672 0.139721 0.000000
H631  H     H_    0.181045 0.770578 0.203016 0.000000
H632  H     H_    0.196314 0.816343 0.286122 0.000000
Br80  Br    Br    0.919947 0.497547 0.116016 0.000000
C1028 C     C_R   0.931423 0.544123 0.172751 0.000000
C1029 C     C_R   0.898948 0.529186 0.189540 0.000000
C1030 C     C_R   0.900521 0.562484 0.226558 0.000000
C1031 C     C_R   0.934199 0.610662 0.245854 0.000000
C1032 C     C_R   0.964392 0.625567 0.226629 0.000000
C1033 C     C_R   0.966332 0.592674 0.192783 0.000000
C1034 C     C_R   0.999641 0.609821 0.173690 0.000000
N159  N     N_R   0.026611 0.588431 0.162646 0.000000
C1035 C     C_R   0.027854 0.596124 0.125903 0.000000
C1036 C     C_R   0.047368 0.579720 0.099497 0.000000
C1037 C     C_R   0.050539 0.594180 0.065608 0.000000
C1038 C     C_R   0.031494 0.622538 0.057194 0.000000
C1039 C     C_R   0.010609 0.637847 0.083463 0.000000
C1040 C     C_R   0.008805 0.624648 0.118707 0.000000
N160  N     N_R   0.993086 0.637503 0.151236 0.000000
H633  H     H_    0.871670 0.491268 0.173123 0.000000
H634  H     H_    0.875927 0.550936 0.240672 0.000000
H635  H     H_    0.937107 0.636339 0.276611 0.000000
H636  H     H_    0.986504 0.662859 0.237190 0.000000
H637  H     H_    0.061201 0.557092 0.106528 0.000000
H638  H     H_    0.067944 0.583455 0.045705 0.000000
H639  H     H_    0.034645 0.634490 0.031101 0.000000
H640  H     H_    0.001803 0.663602 0.078612 0.000000
Br81  Br    Br    0.496140 0.395101 0.771280 0.000000
C1041 C     C_R   0.514717 0.358736 0.739726 0.000000
C1042 C     C_R   0.562232 0.381511 0.746867 0.000000
C1043 C     C_R   0.579759 0.354247 0.728958 0.000000
C1044 C     C_R   0.549142 0.304815 0.704626 0.000000
C1045 C     C_R   0.502197 0.282746 0.698780 0.000000
C1046 C     C_R   0.483539 0.309616 0.715210 0.000000
C1047 C     C_R   0.431696 0.284420 0.705758 0.000000
N161  N     N_R   0.410047 0.236715 0.697811 0.000000
C1048 C     C_R   0.362081 0.225049 0.683334 0.000000
C1049 C     C_R   0.321916 0.182351 0.669553 0.000000
C1050 C     C_R   0.277079 0.179238 0.661191 0.000000
C1051 C     C_R   0.273046 0.219150 0.666118 0.000000
C1052 C     C_R   0.314221 0.262113 0.679982 0.000000
C1053 C     C_R   0.356799 0.263447 0.686290 0.000000
N162  N     N_R   0.398981 0.302472 0.699666 0.000000
H641  H     H_    0.585874 0.420522 0.767368 0.000000
H642  H     H_    0.617334 0.371116 0.734828 0.000000
H643  H     H_    0.562656 0.282375 0.691309 0.000000
H644  H     H_    0.479560 0.244548 0.678699 0.000000
H645  H     H_    0.324511 0.151424 0.662067 0.000000
H646  H     H_    0.244986 0.145417 0.650060 0.000000
H647  H     H_    0.238031 0.216336 0.660124 0.000000
H648  H     H_    0.316025 0.295670 0.687714 0.000000
Br82  Br    Br    0.342916 0.385913 0.563311 0.000000
C1054 C     C_R   0.327455 0.323672 0.553845 0.000000
C1055 C     C_R   0.279823 0.285853 0.518484 0.000000
C1056 C     C_R   0.266896 0.239459 0.509151 0.000000
C1057 C     C_R   0.302323 0.231265 0.534141 0.000000
C1058 C     C_R   0.349773 0.269279 0.570735 0.000000
C1059 C     C_R   0.362674 0.316007 0.580987 0.000000
C1060 C     C_R   0.414657 0.356144 0.614786 0.000000
N163  N     N_R   0.448972 0.369061 0.598692 0.000000
C1061 C     C_R   0.487700 0.410494 0.638074 0.000000
C1062 C     C_R   0.531744 0.437860 0.641423 0.000000
C1063 C     C_R   0.571272 0.475966 0.685860 0.000000
C1064 C     C_R   0.564619 0.487180 0.725552 0.000000
C1065 C     C_R   0.519158 0.459782 0.721293 0.000000
C1066 C     C_R   0.479704 0.420594 0.676808 0.000000
N164  N     N_R   0.432995 0.386070 0.664100 0.000000
H649  H     H_    0.252849 0.292671 0.497850 0.000000
H650  H     H_    0.230052 0.209350 0.480375 0.000000
H651  H     H_    0.293722 0.194646 0.521372 0.000000
H652  H     H_    0.377355 0.262389 0.589758 0.000000
H653  H     H_    0.535942 0.426881 0.610036 0.000000
H654  H     H_    0.607337 0.496691 0.689637 0.000000
H655  H     H_    0.595636 0.516860 0.760685 0.000000
H656  H     H_    0.518495 0.468946 0.754051 0.000000
Br83  Br    Br    0.400204 0.477908 0.674574 0.000000
C1067 C     C_R   0.389573 0.494487 0.728062 0.000000
C1068 C     C_R   0.422211 0.541653 0.765013 0.000000
C1069 C     C_R   0.428206 0.553586 0.810699 0.000000
C1070 C     C_R   0.400760 0.518379 0.818835 0.000000
C1071 C     C_R   0.364388 0.472380 0.780684 0.000000
C1072 C     C_R   0.358241 0.459883 0.735017 0.000000
C1073 C     C_R   0.318440 0.410646 0.695484 0.000000
N165  N     N_R   0.268130 0.397977 0.671853 0.000000
C1074 C     C_R   0.247040 0.352759 0.635933 0.000000
C1075 C     C_R   0.197131 0.320874 0.602620 0.000000
C1076 C     C_R   0.182170 0.275434 0.568993 0.000000
C1077 C     C_R   0.216551 0.261169 0.571951 0.000000
C1078 C     C_R   0.266518 0.292852 0.607099 0.000000
C1079 C     C_R   0.281514 0.338720 0.638853 0.000000
N166  N     N_R   0.327635 0.373539 0.677589 0.000000
H657  H     H_    0.446682 0.568144 0.759314 0.000000
H658  H     H_    0.456485 0.589654 0.840641 0.000000
H659  H     H_    0.408926 0.526915 0.855363 0.000000
H660  H     H_    0.342078 0.444926 0.786364 0.000000
H661  H     H_    0.169440 0.328843 0.605481 0.000000
H662  H     H_    0.142939 0.249647 0.542857 0.000000
H663  H     H_    0.203846 0.224441 0.547473 0.000000
H664  H     H_    0.292902 0.281470 0.609448 0.000000
Br84  Br    Br    0.454912 0.325908 0.820064 0.000000
C1080 C     C_R   0.391615 0.314531 0.803933 0.000000
C1081 C     C_R   0.355363 0.270880 0.793856 0.000000
C1082 C     C_R   0.307657 0.259951 0.776613 0.000000
C1083 C     C_R   0.298900 0.296315 0.778259 0.000000
C1084 C     C_R   0.335911 0.341557 0.793804 0.000000
C1085 C     C_R   0.381342 0.349699 0.802886 0.000000
C1086 C     C_R   0.418106 0.397788 0.817324 0.000000
N167  N     N_R   0.443602 0.434917 0.864789 0.000000
C1087 C     C_R   0.469838 0.473212 0.860345 0.000000
C1088 C     C_R   0.506011 0.519962 0.896043 0.000000
C1089 C     C_R   0.528811 0.553236 0.883071 0.000000
C1090 C     C_R   0.515993 0.539338 0.834982 0.000000
C1091 C     C_R   0.478779 0.492447 0.799404 0.000000
C1092 C     C_R   0.457647 0.459763 0.812835 0.000000
N168  N     N_R   0.424705 0.411798 0.783702 0.000000
H665  H     H_    0.363639 0.246400 0.802886 0.000000
H666  H     H_    0.279228 0.225139 0.768024 0.000000
H667  H     H_    0.264015 0.290967 0.770845 0.000000
H668  H     H_    0.330923 0.371819 0.801406 0.000000
H669  H     H_    0.519415 0.530124 0.933774 0.000000
H670  H     H_    0.556976 0.590245 0.910578 0.000000
H671  H     H_    0.533439 0.565705 0.825004 0.000000
H672  H     H_    0.464999 0.481947 0.761597 0.000000
Br85  Br    Br    0.690017 0.673567 0.378362 0.000000
C1093 C     C_R   0.642294 0.614075 0.364001 0.000000
C1094 C     C_R   0.647961 0.575836 0.344680 0.000000
C1095 C     C_R   0.612628 0.530588 0.330957 0.000000
C1096 C     C_R   0.574597 0.525606 0.340503 0.000000
C1097 C     C_R   0.570103 0.563713 0.361084 0.000000
C1098 C     C_R   0.601810 0.608100 0.370109 0.000000
C1099 C     C_R   0.593375 0.647610 0.388936 0.000000
N169  N     N_R   0.632004 0.692362 0.429127 0.000000
C1100 C     C_R   0.609757 0.717825 0.431853 0.000000
C1101 C     C_R   0.633742 0.766302 0.462804 0.000000
C1102 C     C_R   0.605530 0.786432 0.467761 0.000000
C1103 C     C_R   0.555367 0.760320 0.434319 0.000000
C1104 C     C_R   0.533727 0.714554 0.396491 0.000000
C1105 C     C_R   0.560194 0.690717 0.396653 0.000000
N170  N     N_R   0.546864 0.643967 0.367287 0.000000
H673  H     H_    0.679252 0.581259 0.338915 0.000000
H674  H     H_    0.615439 0.499666 0.314535 0.000000
H675  H     H_    0.546591 0.491143 0.330737 0.000000
H676  H     H_    0.543856 0.559377 0.373103 0.000000
H677  H     H_    0.673913 0.787422 0.485438 0.000000
H678  H     H_    0.623099 0.823507 0.495163 0.000000
H679  H     H_    0.533431 0.777103 0.435498 0.000000
H680  H     H_    0.496500 0.700329 0.370451 0.000000
Br86  Br    Br    0.614523 0.706768 0.330245 0.000000
C1106 C     C_R   0.631207 0.768986 0.370218 0.000000
C1107 C     C_R   0.594831 0.780685 0.364898 0.000000
C1108 C     C_R   0.607108 0.825591 0.397111 0.000000
C1109 C     C_R   0.656107 0.859123 0.433296 0.000000
C1110 C     C_R   0.692295 0.847337 0.437446 0.000000
C1111 C     C_R   0.679692 0.801555 0.406901 0.000000
C1112 C     C_R   0.718971 0.790328 0.410812 0.000000
N171  N     N_R   0.735954 0.771878 0.441149 0.000000
C1113 C     C_R   0.780523 0.783552 0.444788 0.000000
C1114 C     C_R   0.810255 0.767768 0.464059 0.000000
C1115 C     C_R   0.853353 0.780350 0.461209 0.000000
C1116 C     C_R   0.871475 0.818235 0.451835 0.000000
C1117 C     C_R   0.841360 0.835385 0.435116 0.000000
C1118 C     C_R   0.791567 0.809719 0.421860 0.000000
N172  N     N_R   0.750760 0.810303 0.394528 0.000000
H681  H     H_    0.556659 0.754461 0.336151 0.000000
H682  H     H_    0.578573 0.834619 0.393646 0.000000
H683  H     H_    0.666239 0.894753 0.458020 0.000000
H684  H     H_    0.730419 0.874003 0.465200 0.000000
H685  H     H_    0.799381 0.745342 0.480007 0.000000
H686  H     H_    0.876377 0.766088 0.473338 0.000000
H687  H     H_    0.909338 0.834922 0.458330 0.000000
H688  H     H_    0.858405 0.869000 0.435298 0.000000
Br87  Br    Br    0.794247 0.875361 0.549152 0.000000
C1119 C     C_R   0.843557 0.858080 0.564689 0.000000
C1120 C     C_R   0.885375 0.880608 0.561273 0.000000
C1121 C     C_R   0.917186 0.863317 0.565200 0.000000
C1122 C     C_R   0.904525 0.821274 0.568395 0.000000
C1123 C     C_R   0.865034 0.801327 0.575955 0.000000
C1124 C     C_R   0.835888 0.821089 0.576228 0.000000
C1125 C     C_R   0.797322 0.804607 0.589118 0.000000
N173  N     N_R   0.807874 0.832048 0.636324 0.000000
C1126 C     C_R   0.763993 0.829017 0.626833 0.000000
C1127 C     C_R   0.755140 0.856125 0.658056 0.000000
C1128 C     C_R   0.706921 0.846210 0.643644 0.000000
C1129 C     C_R   0.668989 0.810439 0.597211 0.000000
C1130 C     C_R   0.679562 0.785848 0.564875 0.000000
C1131 C     C_R   0.727954 0.797165 0.579202 0.000000
N174  N     N_R   0.746977 0.779412 0.553058 0.000000
H689  H     H_    0.892134 0.910481 0.553601 0.000000
H690  H     H_    0.949292 0.879900 0.561148 0.000000
H691  H     H_    0.926489 0.804678 0.566380 0.000000
H692  H     H_    0.857530 0.771043 0.582566 0.000000
H693  H     H_    0.785382 0.882819 0.694094 0.000000
H694  H     H_    0.698536 0.865275 0.669005 0.000000
H695  H     H_    0.630740 0.800726 0.586483 0.000000
H696  H     H_    0.649225 0.754455 0.531732 0.000000
Br88  Br    Br    0.774692 0.705788 0.597235 0.000000
C1132 C     C_R   0.707809 0.689118 0.567264 0.000000
C1133 C     C_R   0.687899 0.709168 0.590895 0.000000
C1134 C     C_R   0.638493 0.694423 0.566212 0.000000
C1135 C     C_R   0.612030 0.664112 0.517073 0.000000
C1136 C     C_R   0.630459 0.641430 0.494515 0.000000
C1137 C     C_R   0.678600 0.654364 0.520123 0.000000
C1138 C     C_R   0.702637 0.640559 0.495448 0.000000
N175  N     N_R   0.722023 0.666586 0.474434 0.000000
C1139 C     C_R   0.741999 0.641372 0.456881 0.000000
C1140 C     C_R   0.767628 0.648351 0.431722 0.000000
C1141 C     C_R   0.780729 0.615269 0.414645 0.000000
C1142 C     C_R   0.769105 0.575842 0.422683 0.000000
C1143 C     C_R   0.745786 0.569904 0.449691 0.000000
C1144 C     C_R   0.733262 0.603092 0.466709 0.000000
N176  N     N_R   0.709794 0.602252 0.492712 0.000000
H697  H     H_    0.711367 0.739521 0.626384 0.000000
H698  H     H_    0.623174 0.712178 0.583604 0.000000
H699  H     H_    0.579788 0.662549 0.494991 0.000000
H700  H     H_    0.608513 0.616393 0.456381 0.000000
H701  H     H_    0.776704 0.677043 0.422960 0.000000
H702  H     H_    0.799788 0.619998 0.394126 0.000000
H703  H     H_    0.779817 0.550594 0.409023 0.000000
H704  H     H_    0.738049 0.540290 0.457703 0.000000
Br89  Br    Br    0.402954 0.205150 0.766035 0.000000
C1145 C     C_R   0.436734 0.223850 0.829199 0.000000
C1146 C     C_R   0.408121 0.207586 0.849098 0.000000
C1147 C     C_R   0.430076 0.222809 0.897604 0.000000
C1148 C     C_R   0.480774 0.252770 0.924722 0.000000
C1149 C     C_R   0.508994 0.270384 0.904614 0.000000
C1150 C     C_R   0.487296 0.256423 0.855663 0.000000
C1151 C     C_R   0.519819 0.277700 0.836033 0.000000
N177  N     N_R   0.514274 0.255783 0.788841 0.000000
C1152 C     C_R   0.562046 0.285016 0.799442 0.000000
C1153 C     C_R   0.586334 0.279283 0.773929 0.000000
C1154 C     C_R   0.633558 0.316422 0.790120 0.000000
C1155 C     C_R   0.659279 0.356231 0.835193 0.000000
C1156 C     C_R   0.639776 0.354757 0.865472 0.000000
C1157 C     C_R   0.590633 0.322287 0.845815 0.000000
N178  N     N_R   0.566067 0.320225 0.870058 0.000000
H705  H     H_    0.368171 0.182719 0.826132 0.000000
H706  H     H_    0.408538 0.208966 0.913582 0.000000
H707  H     H_    0.499230 0.257646 0.960742 0.000000
H708  H     H_    0.548636 0.292271 0.927485 0.000000
H709  H     H_    0.568850 0.250393 0.739453 0.000000
H710  H     H_    0.650475 0.313912 0.767441 0.000000
H711  H     H_    0.696661 0.384943 0.848556 0.000000
H712  H     H_    0.662062 0.379678 0.903898 0.000000
Br90  Br    Br    0.789184 0.511141 0.108629 0.000000
C1158 C     C_R   0.726832 0.471109 0.100630 0.000000
C1159 C     C_R   0.727172 0.451598 0.131485 0.000000
C1160 C     C_R   0.685359 0.431188 0.135305 0.000000
C1161 C     C_R   0.643265 0.430176 0.107886 0.000000
C1162 C     C_R   0.641901 0.446282 0.074041 0.000000
C1163 C     C_R   0.683519 0.467133 0.070186 0.000000
C1164 C     C_R   0.680718 0.481573 0.032160 0.000000
N179  N     N_R   0.705544 0.530193 0.042681 0.000000
C1165 C     C_R   0.705241 0.524713 0.000981 0.000000
C1166 C     C_R   0.724875 0.561066 0.991285 0.000000
C1167 C     C_R   0.719370 0.550504 0.945830 0.000000
C1168 C     C_R   0.696866 0.503110 0.911713 0.000000
C1169 C     C_R   0.676043 0.466385 0.921676 0.000000
C1170 C     C_R   0.680226 0.477085 0.966810 0.000000
N180  N     N_R   0.661342 0.447241 0.983998 0.000000
H713  H     H_    0.761371 0.455163 0.154983 0.000000
H714  H     H_    0.685938 0.417147 0.160540 0.000000
H715  H     H_    0.610303 0.413069 0.110429 0.000000
H716  H     H_    0.607909 0.441043 0.049068 0.000000
H717  H     H_    0.743522 0.597439 0.019005 0.000000
H718  H     H_    0.733012 0.579255 0.937158 0.000000
H719  H     H_    0.691190 0.494415 0.875490 0.000000
H720  H     H_    0.649873 0.431951 0.891119 0.000000
Br91  Br    Br    0.749074 0.412323 0.011627 0.000000
C1171 C     C_R   0.734742 0.366755 0.952183 0.000000
C1172 C     C_R   0.765638 0.381083 0.933662 0.000000
C1173 C     C_R   0.753567 0.350154 0.888175 0.000000
C1174 C     C_R   0.709676 0.305818 0.861063 0.000000
C1175 C     C_R   0.680433 0.290604 0.881018 0.000000
C1176 C     C_R   0.692954 0.320695 0.926813 0.000000
C1177 C     C_R   0.663393 0.303644 0.948886 0.000000
N181  N     N_R   0.666706 0.270610 0.965114 0.000000
C1178 C     C_R   0.648660 0.277440 0.995766 0.000000
C1179 C     C_R   0.643507 0.256170 0.024116 0.000000
C1180 C     C_R   0.630619 0.273650 0.058126 0.000000
C1181 C     C_R   0.623028 0.311753 0.062718 0.000000
C1182 C     C_R   0.626295 0.330697 0.031829 0.000000
C1183 C     C_R   0.635845 0.311373 0.997424 0.000000
N182  N     N_R   0.640897 0.327290 0.966203 0.000000
H721  H     H_    0.798614 0.417045 0.954397 0.000000
H722  H     H_    0.777001 0.361417 0.872898 0.000000
H723  H     H_    0.698563 0.282222 0.824260 0.000000
H724  H     H_    0.647495 0.255221 0.860723 0.000000
H725  H     H_    0.648396 0.226039 0.019290 0.000000
H726  H     H_    0.627500 0.258549 0.082018 0.000000
H727  H     H_    0.614554 0.326463 0.090278 0.000000
H728  H     H_    0.624159 0.361554 0.034309 0.000000
Br92  Br    Br    0.572551 0.493755 0.013515 0.000000
C1184 C     C_R   0.570474 0.478688 0.953629 0.000000
C1185 C     C_R   0.593237 0.514342 0.943980 0.000000
C1186 C     C_R   0.596952 0.504025 0.903035 0.000000
C1187 C     C_R   0.582320 0.457658 0.874457 0.000000
C1188 C     C_R   0.560993 0.421632 0.885019 0.000000
C1189 C     C_R   0.550683 0.431682 0.922454 0.000000
C1190 C     C_R   0.523233 0.395982 0.933935 0.000000
N183  N     N_R   0.544560 0.373572 0.954520 0.000000
C1191 C     C_R   0.516521 0.359666 0.975414 0.000000
C1192 C     C_R   0.523296 0.342420 0.008166 0.000000
C1193 C     C_R   0.486176 0.324597 0.019230 0.000000
C1194 C     C_R   0.445048 0.328731 0.001759 0.000000
C1195 C     C_R   0.444469 0.356215 0.978698 0.000000
C1196 C     C_R   0.478917 0.369271 0.963898 0.000000
N184  N     N_R   0.481974 0.393319 0.938574 0.000000
H729  H     H_    0.604405 0.549978 0.966507 0.000000
H730  H     H_    0.614193 0.532470 0.895214 0.000000
H731  H     H_    0.591536 0.450474 0.845940 0.000000
H732  H     H_    0.553382 0.386409 0.863725 0.000000
H733  H     H_    0.552960 0.337061 0.021534 0.000000
H734  H     H_    0.489207 0.306854 0.041218 0.000000
H735  H     H_    0.415872 0.314437 0.010204 0.000000
H736  H     H_    0.417039 0.366563 0.972049 0.000000
Br93  Br    Br    0.128061 0.569111 0.740155 0.000000
C1197 C     C_R   0.189654 0.615062 0.755624 0.000000
C1198 C     C_R   0.227048 0.635227 0.802330 0.000000
C1199 C     C_R   0.275231 0.661554 0.814603 0.000000
C1200 C     C_R   0.285389 0.667837 0.779889 0.000000
C1201 C     C_R   0.247606 0.646719 0.732058 0.000000
C1202 C     C_R   0.198467 0.620396 0.719436 0.000000
C1203 C     C_R   0.156659 0.593949 0.668038 0.000000
N185  N     N_R   0.109073 0.588007 0.656066 0.000000
C1204 C     C_R   0.083696 0.559811 0.607756 0.000000
C1205 C     C_R   0.038004 0.550005 0.576681 0.000000
C1206 C     C_R   0.020996 0.528940 0.527473 0.000000
C1207 C     C_R   0.046439 0.511406 0.509819 0.000000
C1208 C     C_R   0.090968 0.518601 0.541490 0.000000
C1209 C     C_R   0.112118 0.547459 0.591234 0.000000
N186  N     N_R   0.161429 0.573360 0.627584 0.000000
H737  H     H_    0.218642 0.627117 0.828519 0.000000
H738  H     H_    0.304862 0.675051 0.850514 0.000000
H739  H     H_    0.324276 0.688191 0.791446 0.000000
H740  H     H_    0.256264 0.649844 0.704320 0.000000
H741  H     H_    0.015432 0.558010 0.590446 0.000000
H742  H     H_    0.986153 0.523304 0.502568 0.000000
H743  H     H_    0.032112 0.493035 0.471050 0.000000
H744  H     H_    0.111403 0.508644 0.525998 0.000000
Br94  Br    Br    0.173577 0.608997 0.566577 0.000000
C1210 C     C_R   0.162478 0.656388 0.576459 0.000000
C1211 C     C_R   0.115481 0.645970 0.546656 0.000000
C1212 C     C_R   0.110319 0.681096 0.538176 0.000000
C1213 C     C_R   0.151350 0.726900 0.565009 0.000000
C1214 C     C_R   0.196789 0.736690 0.598864 0.000000
C1215 C     C_R   0.204753 0.700690 0.602950 0.000000
C1216 C     C_R   0.256729 0.708854 0.631509 0.000000
N187  N     N_R   0.269647 0.674414 0.638764 0.000000
C1217 C     C_R   0.320025 0.701471 0.660437 0.000000
C1218 C     C_R   0.353350 0.686652 0.671438 0.000000
C1219 C     C_R   0.403879 0.720913 0.699938 0.000000
C1220 C     C_R   0.419836 0.769598 0.718745 0.000000
C1221 C     C_R   0.385562 0.783468 0.705164 0.000000
C1222 C     C_R   0.336604 0.748717 0.671829 0.000000
N188  N     N_R   0.298382 0.755371 0.653850 0.000000
H745  H     H_    0.084404 0.609062 0.524897 0.000000
H746  H     H_    0.074626 0.673403 0.512536 0.000000
H747  H     H_    0.146592 0.755358 0.560723 0.000000
H748  H     H_    0.225666 0.772798 0.620792 0.000000
H749  H     H_    0.340365 0.649447 0.658747 0.000000
H750  H     H_    0.430587 0.709753 0.709883 0.000000
H751  H     H_    0.458869 0.796716 0.744485 0.000000
H752  H     H_    0.396057 0.820286 0.722943 0.000000
Br95  Br    Br    0.284155 0.446948 0.609446 0.000000
C1223 C     C_R   0.233131 0.452778 0.571129 0.000000
C1224 C     C_R   0.215851 0.431316 0.521783 0.000000
C1225 C     C_R   0.179582 0.435265 0.491480 0.000000
C1226 C     C_R   0.159547 0.459305 0.510677 0.000000
C1227 C     C_R   0.176496 0.480122 0.560237 0.000000
C1228 C     C_R   0.213763 0.477870 0.591128 0.000000
C1229 C     C_R   0.239156 0.511005 0.643743 0.000000
N189  N     N_R   0.256399 0.499097 0.680048 0.000000
C1230 C     C_R   0.294165 0.543095 0.717414 0.000000
C1231 C     C_R   0.328233 0.553312 0.761451 0.000000
C1232 C     C_R   0.364845 0.601175 0.795001 0.000000
C1233 C     C_R   0.369842 0.636910 0.781824 0.000000
C1234 C     C_R   0.335470 0.625659 0.736607 0.000000
C1235 C     C_R   0.296180 0.578993 0.705960 0.000000
N190  N     N_R   0.259234 0.560537 0.660409 0.000000
H753  H     H_    0.231623 0.412101 0.507077 0.000000
H754  H     H_    0.166361 0.418982 0.452855 0.000000
H755  H     H_    0.130209 0.461081 0.486288 0.000000
H756  H     H_    0.161974 0.499421 0.576191 0.000000
H757  H     H_    0.324393 0.524696 0.770200 0.000000
H758  H     H_    0.390360 0.610803 0.831361 0.000000
H759  H     H_    0.399715 0.674045 0.807560 0.000000
H760  H     H_    0.338447 0.653532 0.727185 0.000000
Br96  Br    Br    0.303022 0.653058 0.553013 0.000000
C1236 C     C_R   0.234214 0.627996 0.511549 0.000000
C1237 C     C_R   0.213038 0.655548 0.507537 0.000000
C1238 C     C_R   0.161882 0.633617 0.483795 0.000000
C1239 C     C_R   0.131602 0.584161 0.465099 0.000000
C1240 C     C_R   0.153048 0.556563 0.468015 0.000000
C1241 C     C_R   0.204419 0.579422 0.491348 0.000000
C1242 C     C_R   0.229114 0.556627 0.508395 0.000000
N191  N     N_R   0.254052 0.541090 0.486488 0.000000
C1243 C     C_R   0.280058 0.533056 0.520620 0.000000
C1244 C     C_R   0.306444 0.510833 0.517467 0.000000
C1245 C     C_R   0.340930 0.517211 0.559991 0.000000
C1246 C     C_R   0.346812 0.544148 0.603750 0.000000
C1247 C     C_R   0.313952 0.559036 0.604844 0.000000
C1248 C     C_R   0.277545 0.549917 0.562101 0.000000
N192  N     N_R   0.242442 0.562432 0.555633 0.000000
H761  H     H_    0.235006 0.694049 0.526357 0.000000
H762  H     H_    0.145563 0.655480 0.480444 0.000000
H763  H     H_    0.091589 0.567615 0.449955 0.000000
H764  H     H_    0.130182 0.518496 0.455958 0.000000
H765  H     H_    0.300070 0.489504 0.482547 0.000000
H766  H     H_    0.366133 0.504413 0.560802 0.000000
H767  H     H_    0.375763 0.551600 0.637193 0.000000
H768  H     H_    0.320181 0.579039 0.639527 0.000000

loop_
_geom_bond_atom_site_label_1
_geom_bond_atom_site_label_2
_geom_bond_distance
_geom_bond_site_symmetry_2
_ccdc_geom_bond_type
Zn1   N5    2.304 .      S
Zn1   N20   2.231 .      S
Zn1   N108  2.211 .      S
Zn1   N132  2.206 1_556  S
Zn2   N2    2.276 .      S
Zn2   N3    2.128 1_554  S
Zn2   N6    2.161 1_554  S
Zn2   N7    2.251 .      S
Zn3   N8    2.259 .      S
Zn3   N97   2.275 .      S
Zn3   N134  2.208 .      S
Zn3   N159  2.220 .      S
Zn4   N10   2.201 .      S
Zn4   N12   2.161 .      S
Zn4   N13   2.261 .      S
Zn4   N16   2.200 .      S
Zn5   N1    2.294 1_556  S
Zn5   N17   2.212 .      S
Zn5   N66   2.231 .      S
Zn5   N90   2.243 .      S
Zn6   N11   2.232 .      S
Zn6   N83   2.212 .      S
Zn6   N137  2.264 .      S
Zn6   N185  2.181 .      S
Zn7   N14   2.257 .      S
Zn7   N99   2.239 .      S
Zn7   N126  2.160 .      S
Zn7   N188  2.137 .      S
Zn8   N18   2.145 .      S
Zn8   N19   2.154 1_655  S
Zn8   N21   2.223 .      S
Zn8   N24   2.251 .      S
Zn9   N25   2.252 .      S
Zn9   N28   2.212 .      S
Zn9   N29   2.256 .      S
Zn9   N32   2.169 .      S
Zn10  N31   2.196 .      S
Zn10  N56   2.196 .      S
Zn10  N61   2.140 .      S
Zn10  N152  2.201 .      S
Zn11  N34   2.260 .      S
Zn11  N36   2.175 .      S
Zn11  N38   2.087 .      S
Zn11  N40   2.198 1_545  S
Zn12  N42   2.253 .      S
Zn12  N73   2.159 .      S
Zn12  N154  2.199 .      S
Zn12  N179  2.197 .      S
Zn13  N23   2.209 .      S
Zn13  N72   2.165 .      S
Zn13  N81   2.204 .      S
Zn13  N173  2.219 .      S
Zn14  N39   2.214 .      S
Zn14  N43   2.212 .      S
Zn14  N78   2.260 .      S
Zn14  N172  2.247 .      S
Zn15  N9    2.180 .      S
Zn15  N70   2.171 .      S
Zn15  N86   2.175 .      S
Zn15  N146  2.195 1_556  S
Zn16  N52   2.256 .      S
Zn16  N60   2.198 .      S
Zn16  N118  2.165 .      S
Zn16  N163  2.189 .      S
Zn17  N30   2.250 .      S
Zn17  N35   2.170 .      S
Zn17  N48   2.242 1_545  S
Zn17  N96   2.179 .      S
Zn18  N22   2.172 .      S
Zn18  N37   2.244 .      S
Zn18  N109  2.254 1_655  S
Zn18  N143  2.185 .      S
Zn19  N103  2.258 .      S
Zn19  N115  2.217 .      S
Zn19  N135  2.225 .      S
Zn19  N191  2.302 .      S
Zn20  N41   2.290 .      S
Zn20  N44   2.214 .      S
Zn20  N46   2.158 .      S
Zn20  N47   2.280 .      S
Zn21  N50   2.199 .      S
Zn21  N51   2.202 .      S
Zn21  N54   2.134 .      S
Zn21  N55   2.187 .      S
Zn22  N57   2.190 .      S
Zn22  N59   2.240 .      S
Zn22  N62   2.168 .      S
Zn22  N64   2.261 .      S
Zn23  N65   2.191 .      S
Zn23  N68   2.198 .      S
Zn23  N69   2.161 1_655  S
Zn23  N71   2.150 .      S
Zn24  N74   2.203 .      S
Zn24  N76   2.221 .      S
Zn24  N77   2.195 .      S
Zn24  N79   2.268 .      S
Zn25  N82   2.260 .      S
Zn25  N84   2.241 .      S
Zn25  N85   2.254 .      S
Zn25  N87   2.245 .      S
Zn26  N89   2.335 1_554  S
Zn26  N91   2.140 1_554  S
Zn26  N93   2.254 .      S
Zn26  N95   2.155 .      S
Zn27  N98   2.170 .      S
Zn27  N100  2.235 .      S
Zn27  N102  2.319 .      S
Zn27  N104  2.243 .      S
Zn28  N106  2.154 .      S
Zn28  N107  2.209 .      S
Zn28  N110  2.250 .      S
Zn28  N112  2.230 .      S
Zn29  N114  2.173 .      S
Zn29  N116  2.231 .      S
Zn29  N117  2.166 .      S
Zn29  N120  2.220 .      S
Zn30  N121  2.175 .      S
Zn30  N123  2.153 .      S
Zn30  N125  2.142 1_545  S
Zn30  N127  2.098 .      S
Zn31  N129  2.195 .      S
Zn31  N131  2.218 .      S
Zn31  N133  2.202 .      S
Zn31  N136  2.269 .      S
Zn32  N138  2.203 1_655  S
Zn32  N139  2.252 1_655  S
Zn32  N141  2.192 .      S
Zn32  N144  2.204 .      S
Zn33  N15   2.216 .      S
Zn33  N26   2.217 1_566  S
Zn33  N92   2.122 .      S
Zn33  N124  2.172 1_565  S
Zn34  N4    2.152 .      S
Zn34  N94   2.198 .      S
Zn34  N128  2.171 .      S
Zn34  N181  2.195 .      S
Zn35  N145  2.190 .      S
Zn35  N148  2.136 .      S
Zn35  N150  2.179 .      S
Zn35  N151  2.231 1_565  S
Zn36  N153  2.145 .      S
Zn36  N156  2.231 .      S
Zn36  N157  2.183 1_655  S
Zn36  N160  2.285 .      S
Zn37  N162  2.239 .      S
Zn37  N164  2.204 .      S
Zn37  N166  2.239 .      S
Zn37  N168  2.192 .      S
Zn38  N169  2.127 .      S
Zn38  N171  2.213 .      S
Zn38  N174  2.210 .      S
Zn38  N175  2.245 .      S
Zn39  N49   2.209 .      S
Zn39  N122  2.261 .      S
Zn39  N161  2.267 .      S
Zn39  N177  2.295 .      S
Zn40  N75   2.222 .      S
Zn40  N113  2.178 .      S
Zn40  N130  2.248 .      S
Zn40  N170  2.283 .      S
Zn41  N27   2.174 .      S
Zn41  N33   2.203 .      S
Zn41  N58   2.191 .      S
Zn41  N142  2.135 .      S
Zn42  N45   2.209 .      S
Zn42  N67   2.261 .      S
Zn42  N147  2.134 1_655  S
Zn42  N155  2.248 .      S
Zn43  N105  2.111 .      S
Zn43  N140  2.176 .      S
Zn43  N165  2.229 .      S
Zn43  N189  2.153 .      S
Zn44  N53   2.175 .      S
Zn44  N101  2.162 .      S
Zn44  N149  2.214 .      S
Zn44  N158  2.253 .      S
Zn45  N80   2.179 .      S
Zn45  N111  2.203 .      S
Zn45  N167  2.148 .      S
Zn45  N184  2.156 .      S
Zn46  N63   2.259 .      S
Zn46  N88   2.255 .      S
Zn46  N119  2.195 .      S
Zn46  N176  2.172 .      S
Zn47  N178  2.131 .      S
Zn47  N180  2.222 .      S
Zn47  N182  2.239 .      S
Zn47  N183  2.191 .      S
Zn48  N186  2.333 .      S
Zn48  N187  2.330 .      S
Zn48  N190  2.150 .      S
Zn48  N192  2.272 .      S
Br1   C1    1.860 .      S
C2    H1    1.057 .      S
C3    H2    1.078 .      S
C4    H3    1.069 .      S
C5    H4    1.069 .      S
C6    C7    1.436 .      S
N1    Zn5   2.294 1_554  S
C9    H5    1.048 .      S
C10   H6    1.081 .      S
C11   H7    1.081 .      S
C12   H8    1.051 .      S
Br2   C14   1.893 .      S
C15   H9    1.080 .      S
C16   H10   1.080 .      S
C17   H11   1.076 .      S
C18   H12   1.078 .      S
C19   C20   1.458 .      S
N3    Zn2   2.128 1_556  S
C22   H13   1.070 .      S
C23   H14   1.077 .      S
C24   H15   1.081 .      S
C25   H16   1.072 .      S
Br3   C27   1.810 1_556  S
C27   Br3   1.810 1_554  S
C28   H17   1.072 .      S
C29   H18   1.080 .      S
C30   H19   1.064 .      S
C31   H20   1.059 .      S
C32   C33   1.477 .      S
C35   H21   1.045 .      S
C36   H22   1.081 .      S
C37   H23   1.081 .      S
C38   H24   1.077 .      S
N6    Zn2   2.161 1_556  S
Br4   C40   1.866 .      S
C41   H25   1.077 .      S
C42   H26   1.081 .      S
C43   H27   1.081 1_554  S
C44   H28   1.076 .      S
C45   C46   1.463 .      S
C48   H29   1.060 .      S
C49   H30   1.081 .      S
C50   H31   1.081 .      S
C51   H32   1.059 .      S
H27   C43   1.081 1_556  S
Br5   C53   1.871 .      S
C54   H33   1.079 1_556  S
C55   H34   1.081 1_556  S
C56   H35   1.077 .      S
C57   H36   1.069 .      S
C58   C59   1.480 .      S
C61   H37   1.058 .      S
C62   H38   1.080 .      S
C63   H39   1.080 .      S
C64   H40   1.066 .      S
H33   C54   1.079 1_554  S
H34   C55   1.081 1_554  S
Br6   C66   1.806 .      S
C67   H41   1.048 .      S
C68   H42   1.080 .      S
C69   H43   1.061 .      S
C70   H44   1.066 .      S
C71   C72   1.466 .      S
C74   H45   1.063 .      S
C75   H46   1.081 .      S
C76   H47   1.080 .      S
C77   H48   1.075 .      S
Br7   C79   1.862 .      S
C80   H49   1.034 .      S
C81   H50   1.080 .      S
C82   H51   1.061 .      S
C83   H52   1.044 .      S
C84   C85   1.452 .      S
C87   H53   1.039 .      S
C88   H54   1.081 .      S
C89   H55   1.081 .      S
C90   H56   1.041 .      S
Br8   C92   1.864 1_544  S
C92   Br8   1.864 1_566  S
C93   H57   1.081 1_556  S
C94   H58   1.081 .      S
C95   H59   1.078 .      S
C96   H60   1.061 .      S
C97   C98   1.498 .      S
C100  H61   1.056 .      S
C101  H62   1.081 .      S
C102  H63   1.074 .      S
C103  H64   1.073 .      S
H57   C93   1.081 1_554  S
Br9   C105  1.786 1_655  S
C105  Br9   1.786 1_455  S
C106  H65   1.074 .      S
C107  H66   1.080 1_556  S
C108  H67   1.070 .      S
C109  H68   1.070 1_455  S
C110  C111  1.507 .      S
C113  H69   1.040 .      S
C114  H70   1.079 .      S
C115  H71   1.077 .      S
C116  H72   1.079 .      S
H66   C107  1.080 1_554  S
H68   C109  1.070 1_655  S
Br10  C118  1.837 1_455  S
C118  Br10  1.837 1_655  S
C119  H73   1.069 .      S
C120  H74   1.078 .      S
C121  H75   1.072 .      S
C122  H76   1.036 .      S
C123  C124  1.482 1_655  S
C124  C123  1.482 1_455  S
N19   Zn8   2.154 1_455  S
C126  H77   1.060 .      S
C127  H78   1.081 .      S
C128  H79   1.081 .      S
C129  H80   1.077 .      S
Br11  C131  1.892 .      S
C132  H81   1.080 .      S
C133  H82   1.081 .      S
C134  H83   1.081 .      S
C135  H84   1.068 .      S
C136  C137  1.471 .      S
C139  H85   1.063 .      S
C140  H86   1.077 .      S
C141  H87   1.080 .      S
C142  H88   1.055 .      S
Br12  C144  1.915 .      S
C145  H89   1.078 .      S
C146  H90   1.081 .      S
C147  H91   1.081 .      S
C148  H92   1.071 .      S
C149  C150  1.450 .      S
C152  H93   1.058 .      S
C153  H94   1.080 .      S
C154  H95   1.081 .      S
C155  H96   1.057 .      S
Br13  C157  1.839 .      S
C158  H97   1.080 .      S
C159  H98   1.080 .      S
C160  H99   1.072 .      S
C161  H100  1.073 1_565  S
C162  C163  1.461 1_565  S
C163  C162  1.461 1_545  S
C165  H101  1.056 .      S
C166  H102  1.080 .      S
C167  H103  1.081 .      S
C168  H104  1.058 .      S
N26   Zn33  2.217 1_544  S
H100  C161  1.073 1_545  S
Br14  C170  1.866 .      S
C171  H105  1.044 .      S
C172  H106  1.081 .      S
C173  H107  1.073 .      S
C174  H108  1.062 .      S
C175  C176  1.452 .      S
C178  H109  1.062 .      S
C179  H110  1.081 .      S
C180  H111  1.081 .      S
C181  H112  1.047 .      S
Br15  C183  1.824 .      S
C184  H113  1.079 .      S
C185  H114  1.079 .      S
C186  H115  1.075 .      S
C187  H116  1.050 .      S
C188  C189  1.501 .      S
C191  H117  1.066 .      S
C192  H118  1.079 .      S
C193  H119  1.081 .      S
C194  H120  1.043 .      S
Br16  C196  1.906 .      S
C197  H121  1.081 .      S
C198  H122  1.081 .      S
C199  H123  1.081 .      S
C200  H124  1.068 .      S
C201  C202  1.469 .      S
C204  H125  1.058 .      S
C205  H126  1.081 .      S
C206  H127  1.081 .      S
C207  H128  1.058 .      S
Br17  C209  1.852 .      S
C210  H129  1.066 .      S
C211  H130  1.077 .      S
C212  H131  1.061 .      S
C213  H132  1.072 .      S
C214  C215  1.427 .      S
C217  H133  1.076 .      S
C218  H134  1.079 .      S
C219  H135  1.081 .      S
C220  H136  1.072 .      S
Br18  C222  1.800 1_545  S
C222  Br18  1.800 1_565  S
C223  H137  1.076 .      S
C224  H138  1.078 .      S
C225  H139  1.070 .      S
C226  H140  1.070 .      S
C227  C228  1.430 1_565  S
C228  C227  1.430 1_545  S
C230  H141  1.070 .      S
C231  H142  1.081 .      S
C232  H143  1.081 .      S
C233  H144  1.063 .      S
Br19  C235  1.885 .      S
C236  H145  1.081 .      S
C237  H146  1.081 .      S
C238  H147  1.073 .      S
C239  H148  1.073 .      S
C240  C241  1.473 .      S
C243  H149  1.059 .      S
C244  H150  1.081 1_655  S
C245  H151  1.081 .      S
C246  H152  1.074 .      S
H150  C244  1.081 1_455  S
Br20  C248  1.888 .      S
C249  H153  1.081 .      S
C250  H154  1.081 .      S
C251  H155  1.078 .      S
C252  H156  1.073 .      S
C253  C254  1.461 .      S
C256  H157  1.058 .      S
C257  H158  1.081 .      S
C258  H159  1.081 .      S
C259  H160  1.065 .      S
N40   Zn11  2.198 1_565  S
Br21  C261  1.859 .      S
C262  H161  1.061 .      S
C263  H162  1.078 .      S
C264  H163  1.064 .      S
C265  H164  1.043 .      S
C266  C267  1.430 .      S
C269  H165  1.061 .      S
C270  H166  1.081 .      S
C271  H167  1.079 .      S
C272  H168  1.051 1_554  S
H168  C272  1.051 1_556  S
Br22  C274  1.814 .      S
C275  H169  1.080 .      S
C276  H170  1.081 .      S
C277  H171  1.076 .      S
C278  H172  1.066 .      S
C279  C280  1.491 .      S
C282  H173  1.048 .      S
C283  H174  1.080 .      S
C284  H175  1.069 .      S
C285  H176  1.064 .      S
Br23  C287  1.853 .      S
C288  H177  1.081 .      S
C289  H178  1.081 .      S
C290  H179  1.076 .      S
C291  H180  1.069 .      S
C292  C293  1.477 .      S
C295  H181  1.047 1_655  S
C296  H182  1.081 1_665  S
C297  H183  1.081 .      S
C298  H184  1.073 .      S
H181  C295  1.047 1_455  S
H182  C296  1.081 1_445  S
Br24  C300  1.864 .      S
C301  H185  1.080 .      S
C302  H186  1.081 .      S
C303  H187  1.076 .      S
C304  H188  1.060 .      S
C305  C306  1.482 .      S
C308  H189  1.054 .      S
C309  H190  1.081 .      S
C310  H191  1.080 .      S
C311  H192  1.071 .      S
N48   Zn17  2.242 1_565  S
Br25  C313  1.879 .      S
C314  H193  1.081 .      S
C315  H194  1.081 .      S
C316  H195  1.077 .      S
C317  H196  1.074 .      S
C318  C319  1.471 .      S
C321  H197  1.060 .      S
C322  H198  1.080 .      S
C323  H199  1.081 .      S
C324  H200  1.052 .      S
Br26  C326  1.843 .      S
C327  H201  1.062 .      S
C328  H202  1.081 .      S
C329  H203  1.071 .      S
C330  H204  1.041 .      S
C331  C332  1.467 .      S
C334  H205  1.077 .      S
C335  H206  1.077 .      S
C336  H207  1.081 .      S
C337  H208  1.079 .      S
Br27  C339  1.867 1_545  S
C339  Br27  1.867 1_565  S
C340  H209  1.081 .      S
C341  H210  1.081 .      S
C342  H211  1.080 .      S
C343  H212  1.064 .      S
C344  C345  1.473 .      S
C347  H213  1.056 .      S
C348  H214  1.080 1_545  S
C349  H215  1.080 .      S
C350  H216  1.071 .      S
H214  C348  1.080 1_565  S
Br28  C352  1.867 .      S
C353  H217  1.051 .      S
C354  H218  1.081 .      S
C355  H219  1.060 .      S
C356  H220  1.054 .      S
C357  C358  1.446 .      S
C360  H221  1.069 .      S
C361  H222  1.080 .      S
C362  H223  1.081 .      S
C363  H224  1.061 .      S
Br29  C365  1.921 .      S
C366  H225  1.081 .      S
C367  H226  1.081 .      S
C368  H227  1.081 .      S
C369  H228  1.072 .      S
C370  C371  1.468 .      S
C373  H229  1.068 .      S
C374  H230  1.074 .      S
C375  H231  1.081 .      S
C376  H232  1.077 .      S
Br30  C378  1.828 .      S
C379  H233  1.070 .      S
C380  H234  1.080 .      S
C381  H235  1.066 .      S
C382  H236  1.067 .      S
C383  C384  1.454 .      S
C386  H237  1.069 .      S
C387  H238  1.078 .      S
C388  H239  1.080 .      S
C389  H240  1.057 .      S
Br31  C391  1.814 .      S
C392  H241  1.072 .      S
C393  H242  1.081 .      S
C394  H243  1.072 .      S
C395  H244  1.077 .      S
C396  C397  1.460 .      S
C399  H245  1.073 .      S
C400  H246  1.081 .      S
C401  H247  1.078 .      S
C402  H248  1.071 .      S
Br32  C404  1.872 .      S
C405  H249  1.081 .      S
C406  H250  1.081 .      S
C407  H251  1.077 .      S
C408  H252  1.077 .      S
C409  C410  1.483 .      S
C412  H253  1.056 .      S
C413  H254  1.075 .      S
C414  H255  1.077 .      S
C415  H256  1.063 .      S
Br33  C417  1.885 .      S
C418  H257  1.077 .      S
C419  H258  1.081 .      S
C420  H259  1.078 .      S
C421  H260  1.077 .      S
C422  C423  1.459 1_565  S
C423  C422  1.459 1_545  S
C425  H261  1.068 .      S
C426  H262  1.080 .      S
C427  H263  1.081 .      S
C428  H264  1.062 1_455  S
H264  C428  1.062 1_655  S
Br34  C430  1.885 .      S
C431  H265  1.078 .      S
C432  H266  1.081 .      S
C433  H267  1.080 .      S
C434  H268  1.065 .      S
C435  C436  1.457 .      S
C438  H269  1.045 1_556  S
C439  H270  1.078 .      S
C440  H271  1.081 .      S
C441  H272  1.060 .      S
H269  C438  1.045 1_554  S
Br35  C443  1.881 1_454  S
C443  Br35  1.881 1_656  S
C444  H273  1.045 .      S
C445  H274  1.080 .      S
C446  H275  1.062 .      S
C447  H276  1.074 .      S
C448  C449  1.433 1_655  S
C449  C448  1.433 1_455  S
N69   Zn23  2.161 1_455  S
C451  H277  1.076 .      S
C452  H278  1.080 .      S
C453  H279  1.081 .      S
C454  H280  1.078 .      S
Br36  C456  1.890 .      S
C457  H281  1.051 .      S
C458  H282  1.081 1_565  S
C459  H283  1.063 .      S
C460  H284  1.050 .      S
C461  C462  1.440 .      S
C464  H285  1.064 .      S
C465  H286  1.080 .      S
C466  H287  1.081 .      S
C467  H288  1.049 .      S
H282  C458  1.081 1_545  S
Br37  C469  1.858 .      S
C470  H289  1.069 .      S
C471  H290  1.081 .      S
C472  H291  1.069 1_554  S
C473  H292  1.072 .      S
C474  C475  1.468 .      S
C477  H293  1.073 .      S
C478  H294  1.081 .      S
C479  H295  1.081 .      S
C480  H296  1.054 .      S
H291  C472  1.069 1_556  S
Br38  C482  1.878 .      S
C483  H297  1.076 .      S
C484  H298  1.081 .      S
C485  H299  1.080 .      S
C486  H300  1.063 .      S
C487  C488  1.474 .      S
C490  H301  1.040 .      S
C491  H302  1.081 .      S
C492  H303  1.081 .      S
C493  H304  1.060 .      S
Br39  C495  1.834 .      S
C496  H305  1.078 .      S
C497  H306  1.081 .      S
C498  H307  1.071 .      S
C499  H308  1.049 .      S
C500  C501  1.494 .      S
C503  H309  1.075 .      S
C504  H310  1.080 .      S
C505  H311  1.081 .      S
C506  H312  1.037 .      S
Br40  C508  1.881 .      S
C509  H313  1.080 .      S
C510  H314  1.081 .      S
C511  H315  1.075 .      S
C512  H316  1.073 .      S
C513  C514  1.464 .      S
C516  H317  1.043 .      S
C517  H318  1.081 .      S
C518  H319  1.080 .      S
C519  H320  1.071 .      S
Br41  C521  1.756 .      S
C522  H321  1.077 .      S
C523  H322  1.081 .      S
C524  H323  1.071 .      S
C525  H324  1.070 .      S
C526  C527  1.513 .      S
C529  H325  1.076 .      S
C530  H326  1.081 1_655  S
C531  H327  1.077 .      S
C532  H328  1.074 .      S
H326  C530  1.081 1_455  S
Br42  C534  1.895 .      S
C535  H329  1.081 .      S
C536  H330  1.081 .      S
C537  H331  1.075 .      S
C538  H332  1.070 .      S
C539  C540  1.477 .      S
C542  H333  1.067 .      S
C543  H334  1.081 1_655  S
C544  H335  1.081 .      S
C545  H336  1.063 .      S
H334  C543  1.081 1_455  S
Br43  C547  1.865 .      S
C548  H337  1.045 .      S
C549  H338  1.080 .      S
C550  H339  1.054 .      S
C551  H340  1.072 1_455  S
C552  C553  1.416 .      S
C555  H341  1.057 .      S
C556  H342  1.081 .      S
C557  H343  1.079 .      S
C558  H344  1.070 .      S
H340  C551  1.072 1_655  S
Br44  C560  1.890 .      S
C561  H345  1.080 .      S
C562  H346  1.080 .      S
C563  H347  1.078 .      S
C564  H348  1.079 .      S
C565  C566  1.465 .      S
C568  H349  1.043 .      S
C569  H350  1.081 .      S
C570  H351  1.081 .      S
C571  H352  1.065 .      S
Br45  C573  1.875 .      S
C574  H353  1.080 .      S
C575  H354  1.081 .      S
C576  H355  1.081 .      S
C577  H356  1.053 1_565  S
C578  C579  1.496 1_565  S
C579  C578  1.496 1_545  S
N89   Zn26  2.335 1_556  S
C581  H357  1.012 .      S
C582  H358  1.078 .      S
C583  H359  1.075 .      S
C584  H360  1.038 .      S
H356  C577  1.053 1_545  S
Br46  C586  1.875 .      S
C587  H361  1.068 .      S
C588  H362  1.080 .      S
C589  H363  1.061 .      S
C590  H364  1.068 1_554  S
C591  C592  1.445 .      S
N91   Zn26  2.140 1_556  S
C594  H365  1.054 .      S
C595  H366  1.079 .      S
C596  H367  1.078 .      S
C597  H368  1.065 .      S
H364  C590  1.068 1_556  S
Br47  C599  1.904 1_554  S
C599  Br47  1.904 1_556  S
C600  H369  1.067 .      S
C601  H370  1.075 .      S
C602  H371  1.078 .      S
C603  H372  1.064 .      S
C604  C605  1.427 .      S
C607  H373  1.060 .      S
C608  H374  1.081 .      S
C609  H375  1.081 .      S
C610  H376  1.077 .      S
Br48  C612  1.841 .      S
C613  H377  1.081 1_554  S
C614  H378  1.081 1_554  S
C615  H379  1.064 .      S
C616  H380  1.075 .      S
C617  C618  1.488 1_565  S
C618  C617  1.488 1_545  S
C620  H381  1.073 .      S
C621  H382  1.076 .      S
C622  H383  1.081 .      S
C623  H384  1.040 .      S
H377  C613  1.081 1_556  S
H378  C614  1.081 1_556  S
Br49  C625  1.878 .      S
C626  H385  1.054 .      S
C627  H386  1.077 .      S
C628  H387  1.081 .      S
C629  H388  1.020 .      S
C630  C631  1.489 .      S
C633  H389  1.068 .      S
C634  H390  1.076 1_455  S
C635  H391  1.080 .      S
C636  H392  1.069 .      S
H390  C634  1.076 1_655  S
Br50  C638  1.888 .      S
C639  H393  1.081 .      S
C640  H394  1.081 .      S
C641  H395  1.079 .      S
C642  H396  1.044 .      S
C643  C644  1.491 .      S
C646  H397  1.068 .      S
C647  H398  1.081 .      S
C648  H399  1.075 .      S
C649  H400  1.059 .      S
Br51  C651  1.856 .      S
C652  H401  1.075 .      S
C653  H402  1.063 .      S
C654  H403  1.080 .      S
C655  H404  1.080 .      S
C656  C657  1.438 .      S
C659  H405  1.061 .      S
C660  H406  1.081 .      S
C661  H407  1.060 .      S
C662  H408  1.055 .      S
Br52  C664  1.808 .      S
C665  H409  1.081 .      S
C666  H410  1.081 .      S
C667  H411  1.066 .      S
C668  H412  1.075 .      S
C669  C670  1.525 .      S
C672  H413  1.065 .      S
C673  H414  1.081 .      S
C674  H415  1.081 .      S
C675  H416  1.080 .      S
Br53  C677  1.845 .      S
C678  H417  1.055 .      S
C679  H418  1.079 .      S
C680  H419  1.040 .      S
C681  H420  1.061 .      S
C682  C683  1.442 .      S
C685  H421  1.067 .      S
C686  H422  1.081 .      S
C687  H423  1.081 .      S
C688  H424  1.075 .      S
Br54  C690  1.888 .      S
C691  H425  1.081 .      S
C692  H426  1.081 .      S
C693  H427  1.079 .      S
C694  H428  1.078 .      S
C695  C696  1.468 .      S
C698  H429  1.048 .      S
C699  H430  1.081 .      S
C700  H431  1.080 .      S
C701  H432  1.072 .      S
Br55  C703  1.808 .      S
C704  H433  1.075 .      S
C705  H434  1.080 .      S
C706  H435  1.064 .      S
C707  H436  1.058 .      S
C708  C709  1.471 .      S
N109  Zn18  2.254 1_455  S
C711  H437  1.049 .      S
C712  H438  1.081 .      S
C713  H439  1.068 .      S
C714  H440  1.060 .      S
Br56  C716  1.869 .      S
C717  H441  1.080 1_556  S
C718  H442  1.081 .      S
C719  H443  1.078 .      S
C720  H444  1.065 .      S
C721  C722  1.464 .      S
C724  H445  1.070 .      S
C725  H446  1.081 .      S
C726  H447  1.081 .      S
C727  H448  1.066 .      S
H441  C717  1.080 1_554  S
Br57  C729  1.818 .      S
C730  H449  1.078 .      S
C731  H450  1.081 .      S
C732  H451  1.076 .      S
C733  H452  1.041 .      S
C734  C735  1.517 .      S
C737  H453  1.075 .      S
C738  H454  1.080 .      S
C739  H455  1.081 .      S
C740  H456  1.038 .      S
Br58  C742  1.869 .      S
C743  H457  1.081 .      S
C744  H458  1.081 .      S
C745  H459  1.076 .      S
C746  H460  1.052 .      S
C747  C748  1.510 .      S
C750  H461  1.069 .      S
C751  H462  1.081 .      S
C752  H463  1.081 .      S
C753  H464  1.066 .      S
Br59  C755  1.878 .      S
C756  H465  1.081 .      S
C757  H466  1.081 .      S
C758  H467  1.078 .      S
C759  H468  1.066 .      S
C760  C761  1.481 .      S
C763  H469  1.068 .      S
C764  H470  1.080 .      S
C765  H471  1.081 .      S
C766  H472  1.053 .      S
Br60  C768  1.861 .      S
C769  H473  1.073 .      S
C770  H474  1.081 .      S
C771  H475  1.079 .      S
C772  H476  1.047 .      S
C773  C774  1.470 .      S
C776  H477  1.072 .      S
C777  H478  1.056 .      S
C778  H479  1.081 .      S
C779  H480  1.038 .      S
Br61  C781  1.901 .      S
C782  H481  1.081 .      S
C783  H482  1.081 .      S
C784  H483  1.077 1_545  S
C785  H484  1.063 .      S
C786  C787  1.486 .      S
C789  H485  1.061 .      S
C790  H486  1.078 .      S
C791  H487  1.081 .      S
C792  H488  1.050 .      S
H483  C784  1.077 1_565  S
Br62  C794  1.819 .      S
C795  H489  1.081 .      S
C796  H490  1.076 .      S
C797  H491  1.074 .      S
C798  H492  1.058 .      S
C799  C800  1.509 .      S
C802  H493  1.065 .      S
C803  H494  1.080 .      S
C804  H495  1.080 .      S
C805  H496  1.074 .      S
N124  Zn33  2.172 1_545  S
Br63  C807  1.868 .      S
C808  H497  1.081 .      S
C809  H498  1.080 .      S
C810  H499  1.067 .      S
C811  H500  1.067 .      S
C812  C813  1.470 .      S
N125  Zn30  2.142 1_565  S
C815  H501  1.073 .      S
C816  H502  1.081 .      S
C817  H503  1.080 .      S
C818  H504  1.072 .      S
Br64  C820  1.858 .      S
C821  H505  1.059 .      S
C822  H506  1.079 .      S
C823  H507  1.061 .      S
C824  H508  1.064 .      S
C825  C826  1.430 .      S
C828  H509  1.076 .      S
C829  H510  1.081 .      S
C830  H511  1.080 .      S
C831  H512  1.037 .      S
Br65  C833  1.892 .      S
C834  H513  1.080 .      S
C835  H514  1.081 .      S
C836  H515  1.075 .      S
C837  H516  1.076 .      S
C838  C839  1.467 .      S
C841  H517  1.066 .      S
C842  H518  1.064 .      S
C843  H519  1.080 .      S
C844  H520  1.058 .      S
Br66  C846  1.888 .      S
C847  H521  1.081 .      S
C848  H522  1.078 .      S
C849  H523  1.072 .      S
C850  H524  1.077 .      S
C851  C852  1.471 .      S
C854  H525  1.067 .      S
C855  H526  1.080 .      S
C856  H527  1.081 .      S
C857  H528  1.052 .      S
N132  Zn1   2.206 1_554  S
Br67  C859  1.826 .      S
C860  H529  1.068 .      S
C861  H530  1.080 .      S
C862  H531  1.056 .      S
C863  H532  1.036 .      S
C864  C865  1.470 .      S
C867  H533  1.079 .      S
C868  H534  1.081 .      S
C869  H535  1.081 .      S
C870  H536  1.058 .      S
Br68  C872  1.887 .      S
C873  H537  1.071 .      S
C874  H538  1.061 .      S
C875  H539  1.068 .      S
C876  H540  1.055 .      S
C877  C878  1.459 .      S
C880  H541  1.081 .      S
C881  H542  1.081 .      S
C882  H543  1.080 .      S
C883  H544  1.060 .      S
Br69  C885  1.886 .      S
C886  H545  1.080 .      S
C887  H546  1.081 .      S
C888  H547  1.077 .      S
C889  H548  1.071 1_655  S
C890  C891  1.465 1_655  S
C891  C890  1.465 1_455  S
C893  H549  1.053 .      S
C894  H550  1.080 .      S
C895  H551  1.081 .      S
C896  H552  1.062 .      S
N138  Zn32  2.203 1_455  S
H548  C889  1.071 1_455  S
Br70  C898  1.858 .      S
C899  H553  1.069 .      S
C900  H554  1.081 .      S
C901  H555  1.069 .      S
C902  H556  1.071 .      S
C903  C904  1.465 .      S
N139  Zn32  2.252 1_455  S
C906  H557  1.069 .      S
C907  H558  1.081 .      S
C908  H559  1.080 .      S
C909  H560  1.067 .      S
Br71  C911  1.859 .      S
C912  H561  1.077 .      S
C913  H562  1.081 .      S
C914  H563  1.080 .      S
C915  H564  1.060 .      S
C916  C917  1.463 .      S
C919  H565  1.030 .      S
C920  H566  1.080 .      S
C921  H567  1.074 .      S
C922  H568  1.057 .      S
Br72  C924  1.775 .      S
C925  H569  1.081 .      S
C926  H570  1.081 .      S
C927  H571  1.069 .      S
C928  H572  1.054 .      S
C929  C930  1.513 1_455  S
C930  C929  1.513 1_655  S
C932  H573  1.079 .      S
C933  H574  1.080 .      S
C934  H575  1.079 .      S
C935  H576  1.063 .      S
Br73  C937  1.890 .      S
C938  H577  1.081 .      S
C939  H578  1.081 .      S
C940  H579  1.078 .      S
C941  H580  1.078 .      S
C942  C943  1.468 .      S
C945  H581  1.066 .      S
C946  H582  1.081 .      S
C947  H583  1.080 1_554  S
C948  H584  1.070 .      S
N146  Zn15  2.195 1_554  S
H583  C947  1.080 1_556  S
Br74  C950  1.835 .      S
C951  H585  1.041 .      S
C952  H586  1.081 .      S
C953  H587  1.059 1_454  S
C954  H588  1.062 .      S
C955  C956  1.473 .      S
N147  Zn42  2.134 1_455  S
C958  H589  1.073 .      S
C959  H590  1.081 .      S
C960  H591  1.081 .      S
C961  H592  1.056 .      S
H587  C953  1.059 1_656  S
Br75  C963  1.811 .      S
C964  H593  1.079 .      S
C965  H594  1.079 .      S
C966  H595  1.072 .      S
C967  H596  1.072 .      S
C968  C969  1.514 .      S
C971  H597  1.075 .      S
C972  H598  1.081 .      S
C973  H599  1.080 .      S
C974  H600  1.076 .      S
Br76  C976  1.900 .      S
C977  H601  1.080 .      S
C978  H602  1.080 .      S
C979  H603  1.078 .      S
C980  H604  1.075 .      S
C981  C982  1.465 1_565  S
C982  C981  1.465 1_545  S
N151  Zn35  2.231 1_545  S
C984  H605  1.054 .      S
C985  H606  1.081 .      S
C986  H607  1.080 .      S
C987  H608  1.073 .      S
Br77  C989  1.869 .      S
C990  H609  1.079 1_554  S
C991  H610  1.081 .      S
C992  H611  1.081 .      S
C993  H612  1.072 .      S
C994  C995  1.454 .      S
C997  H613  1.059 .      S
C998  H614  1.075 .      S
C999  H615  1.081 .      S
C1000 H616  1.055 .      S
H609  C990  1.079 1_556  S
Br78  C1002 1.820 .      S
C1003 H617  1.076 .      S
C1004 H618  1.071 .      S
C1005 H619  1.072 .      S
C1006 H620  1.060 .      S
C1007 C1008 1.483 .      S
C1010 H621  1.056 .      S
C1011 H622  1.081 .      S
C1012 H623  1.081 1_554  S
C1013 H624  1.076 .      S
H623  C1012 1.081 1_556  S
Br79  C1015 1.866 .      S
C1016 H625  1.081 .      S
C1017 H626  1.081 .      S
C1018 H627  1.070 .      S
C1019 H628  1.067 .      S
C1020 C1021 1.528 .      S
N157  Zn36  2.183 1_455  S
C1023 H629  1.055 .      S
C1024 H630  1.075 .      S
C1025 H631  1.072 .      S
C1026 H632  1.049 .      S
Br80  C1028 1.867 .      S
C1029 H633  1.078 .      S
C1030 H634  1.081 .      S
C1031 H635  1.073 .      S
C1032 H636  1.067 .      S
C1033 C1034 1.475 .      S
C1036 H637  1.073 .      S
C1037 H638  1.081 .      S
C1038 H639  1.081 .      S
C1039 H640  1.057 .      S
Br81  C1041 1.793 .      S
C1042 H641  1.080 .      S
C1043 H642  1.080 .      S
C1044 H643  1.076 .      S
C1045 H644  1.057 .      S
C1046 C1047 1.478 .      S
C1049 H645  1.046 .      S
C1050 H646  1.081 .      S
C1051 H647  1.074 .      S
C1052 H648  1.062 .      S
Br82  C1054 1.874 .      S
C1055 H649  1.081 .      S
C1056 H650  1.081 .      S
C1057 H651  1.070 .      S
C1058 H652  1.076 .      S
C1059 C1060 1.467 .      S
C1062 H653  1.071 .      S
C1063 H654  1.081 .      S
C1064 H655  1.081 .      S
C1065 H656  1.049 .      S
Br83  C1067 1.888 .      S
C1068 H657  1.081 .      S
C1069 H658  1.081 .      S
C1070 H659  1.070 .      S
C1071 H660  1.068 .      S
C1072 C1073 1.470 .      S
C1075 H661  1.074 .      S
C1076 H662  1.081 .      S
C1077 H663  1.080 .      S
C1078 H664  1.070 .      S
Br84  C1080 1.839 .      S
C1081 H665  1.058 .      S
C1082 H666  1.078 .      S
C1083 H667  1.031 .      S
C1084 H668  1.069 .      S
C1085 C1086 1.432 .      S
C1088 H669  1.071 .      S
C1089 H670  1.078 .      S
C1090 H671  1.081 .      S
C1091 H672  1.070 .      S
Br85  C1093 1.834 .      S
C1094 H673  1.078 .      S
C1095 H674  1.081 .      S
C1096 H675  1.051 .      S
C1097 H676  1.054 .      S
C1098 C1099 1.468 .      S
C1101 H677  1.078 .      S
C1102 H678  1.081 .      S
C1103 H679  1.081 .      S
C1104 H680  1.053 .      S
Br86  C1106 1.867 .      S
C1107 H681  1.079 .      S
C1108 H682  1.081 .      S
C1109 H683  1.081 .      S
C1110 H684  1.072 .      S
C1111 C1112 1.465 .      S
C1114 H685  1.075 .      S
C1115 H686  1.081 .      S
C1116 H687  1.081 .      S
C1117 H688  1.066 .      S
Br87  C1119 1.903 .      S
C1120 H689  1.080 .      S
C1121 H690  1.081 .      S
C1122 H691  1.080 .      S
C1123 H692  1.072 .      S
C1124 C1125 1.454 .      S
C1127 H693  1.069 .      S
C1128 H694  1.080 .      S
C1129 H695  1.081 .      S
C1130 H696  1.062 .      S
Br88  C1132 1.874 .      S
C1133 H697  1.061 .      S
C1134 H698  1.080 .      S
C1135 H699  1.050 .      S
C1136 H700  1.069 .      S
C1137 C1138 1.417 .      S
C1140 H701  1.065 .      S
C1141 H702  1.081 .      S
C1142 H703  1.079 .      S
C1143 H704  1.078 .      S
Br89  C1145 1.784 .      S
C1146 H705  1.081 .      S
C1147 H706  1.080 .      S
C1148 H707  1.076 .      S
C1149 H708  1.066 .      S
C1150 C1151 1.512 .      S
C1153 H709  1.036 .      S
C1154 H710  1.081 .      S
C1155 H711  1.080 .      S
C1156 H712  1.075 .      S
Br90  C1158 1.881 .      S
C1159 H713  1.081 .      S
C1160 H714  1.081 .      S
C1161 H715  1.078 .      S
C1162 H716  1.066 .      S
C1163 C1164 1.475 .      S
C1166 H717  1.062 1_556  S
C1167 H718  1.081 .      S
C1168 H719  1.081 .      S
C1169 H720  1.050 .      S
H717  C1166 1.062 1_554  S
Br91  C1171 1.875 1_554  S
C1171 Br91  1.875 1_556  S
C1172 H721  1.081 .      S
C1173 H722  1.081 .      S
C1174 H723  1.081 .      S
C1175 H724  1.070 .      S
C1176 C1177 1.466 .      S
C1179 H725  1.067 .      S
C1180 H726  1.079 .      S
C1181 H727  1.080 .      S
C1182 H728  1.055 .      S
Br92  C1184 1.871 1_554  S
C1184 Br92  1.871 1_556  S
C1185 H729  1.049 .      S
C1186 H730  1.080 .      S
C1187 H731  1.077 .      S
C1188 H732  1.069 .      S
C1189 C1190 1.461 .      S
C1192 H733  1.045 .      S
C1193 H734  1.081 .      S
C1194 H735  1.080 .      S
C1195 H736  1.073 .      S
Br93  C1197 1.827 .      S
C1198 H737  1.077 .      S
C1199 H738  1.079 .      S
C1200 H739  1.069 .      S
C1201 H740  1.075 .      S
C1202 C1203 1.496 .      S
C1205 H741  1.071 .      S
C1206 H742  1.080 1_455  S
C1207 H743  1.081 .      S
C1208 H744  1.066 .      S
H742  C1206 1.080 1_655  S
Br94  C1210 1.740 .      S
C1211 H745  1.077 .      S
C1212 H746  1.081 .      S
C1213 H747  1.076 .      S
C1214 H748  1.040 .      S
C1215 C1216 1.536 .      S
C1218 H749  1.055 .      S
C1219 H750  1.081 .      S
C1220 H751  1.081 .      S
C1221 H752  1.062 .      S
Br95  C1223 1.871 .      S
C1224 H753  1.081 .      S
C1225 H754  1.081 .      S
C1226 H755  1.077 .      S
C1227 H756  1.066 .      S
C1228 C1229 1.475 .      S
C1231 H757  1.070 .      S
C1232 H758  1.080 .      S
C1233 H759  1.081 .      S
C1234 H760  1.064 .      S
Br96  C1236 1.901 .      S
C1237 H761  1.063 .      S
C1238 H762  1.078 .      S
C1239 H763  1.081 .      S
C1240 H764  1.080 .      S
C1241 C1242 1.420 .      S
C1244 H765  1.065 .      S
C1245 H766  1.072 .      S
C1246 H767  1.081 .      S
C1247 H768  1.049 .      S
C1    C2    1.374 .      A
C1    C6    1.355 .      A
C2    C3    1.363 .      A
C3    C4    1.366 .      A
C4    C5    1.356 .      A
C5    C6    1.348 .      A
C7    N1    1.408 1_556  A
C7    N2    1.401 1_556  A
N1    C7    1.408 1_554  A
N1    C8    1.341 .      A
C8    C9    1.357 .      A
C8    C13   1.373 .      A
C9    C10   1.368 .      A
C10   C11   1.371 .      A
C11   C12   1.379 .      A
C12   C13   1.394 .      A
C13   N2    1.379 .      A
N2    C7    1.401 1_554  A
C14   C15   1.381 .      A
C14   C19   1.372 .      A
C15   C16   1.370 .      A
C16   C17   1.370 .      A
C17   C18   1.377 .      A
C18   C19   1.377 .      A
C20   N3    1.395 1_554  A
C20   N4    1.392 1_554  A
N3    C20   1.395 1_556  A
N3    C21   1.349 .      A
C21   C22   1.373 .      A
C21   C26   1.363 .      A
C22   C23   1.379 .      A
C23   C24   1.379 .      A
C24   C25   1.381 .      A
C25   C26   1.355 .      A
C26   N4    1.345 .      A
N4    C20   1.392 1_556  A
C27   C28   1.380 .      A
C27   C32   1.353 .      A
C28   C29   1.360 .      A
C29   C30   1.362 .      A
C30   C31   1.367 .      A
C31   C32   1.368 .      A
C33   N5    1.428 1_554  A
C33   N6    1.388 1_454  A
N5    C33   1.428 1_556  A
N5    C34   1.380 .      A
C34   C35   1.385 .      A
C34   C39   1.376 1_455  A
C35   C36   1.382 1_455  A
C36   C35   1.382 1_655  A
C36   C37   1.374 .      A
C37   C38   1.372 .      A
C38   C39   1.371 .      A
C39   C34   1.376 1_655  A
C39   N6    1.335 .      A
N6    C33   1.388 1_656  A
C40   C41   1.380 .      A
C40   C45   1.353 1_455  A
C41   C42   1.380 1_454  A
C42   C41   1.380 1_656  A
C42   C43   1.377 1_556  A
C43   C42   1.377 1_554  A
C43   C44   1.377 .      A
C44   C45   1.380 .      A
C45   C40   1.353 1_655  A
C46   N7    1.403 .      A
C46   N8    1.415 1_655  A
N7    C47   1.330 .      A
C47   C48   1.327 .      A
C47   C52   1.364 .      A
C48   C49   1.378 .      A
C49   C50   1.382 .      A
C50   C51   1.384 .      A
C51   C52   1.381 .      A
C52   N8    1.359 1_655  A
N8    C46   1.415 1_455  A
N8    C52   1.359 1_455  A
C53   C54   1.376 .      A
C53   C58   1.380 .      A
C54   C55   1.368 .      A
C55   C56   1.373 .      A
C56   C57   1.381 .      A
C57   C58   1.382 .      A
C59   N9    1.403 .      A
C59   N10   1.411 .      A
N9    C60   1.340 .      A
C60   C61   1.354 .      A
C60   C65   1.362 .      A
C61   C62   1.379 .      A
C62   C63   1.379 .      A
C63   C64   1.383 .      A
C64   C65   1.360 .      A
C65   N10   1.348 .      A
C66   C67   1.363 .      A
C66   C71   1.343 .      A
C67   C68   1.355 .      A
C68   C69   1.353 .      A
C69   C70   1.379 .      A
C70   C71   1.350 .      A
C72   N11   1.409 .      A
C72   N12   1.396 .      A
N11   C73   1.362 .      A
C73   C74   1.378 .      A
C73   C78   1.375 .      A
C74   C75   1.380 .      A
C75   C76   1.382 .      A
C76   C77   1.379 .      A
C77   C78   1.372 .      A
C78   N12   1.347 .      A
C79   C80   1.369 .      A
C79   C84   1.339 .      A
C80   C81   1.350 .      A
C81   C82   1.346 .      A
C82   C83   1.366 .      A
C83   C84   1.358 .      A
C85   N13   1.409 .      A
C85   N14   1.408 .      A
N13   C86   1.353 .      A
C86   C87   1.358 .      A
C86   C91   1.369 .      A
C87   C88   1.379 .      A
C88   C89   1.376 .      A
C89   C90   1.377 .      A
C90   C91   1.363 .      A
C91   N14   1.349 .      A
C92   C93   1.377 1_565  A
C92   C97   1.392 .      A
C93   C92   1.377 1_545  A
C93   C94   1.365 .      A
C94   C95   1.369 .      A
C95   C96   1.383 1_545  A
C96   C95   1.383 1_565  A
C96   C97   1.377 .      A
C98   N15   1.412 .      A
C98   N16   1.416 .      A
N15   C99   1.355 .      A
C99   C100  1.367 .      A
C99   C104  1.371 .      A
C100  C101  1.378 .      A
C101  C102  1.379 .      A
C102  C103  1.380 .      A
C103  C104  1.373 .      A
C104  N16   1.347 .      A
C105  C106  1.373 1_556  A
C105  C110  1.369 1_455  A
C106  C105  1.373 1_554  A
C106  C107  1.343 1_554  A
C107  C106  1.343 1_556  A
C107  C108  1.351 .      A
C108  C109  1.397 .      A
C109  C110  1.360 1_455  A
C110  C105  1.369 1_655  A
C110  C109  1.360 1_655  A
C111  N17   1.414 .      A
C111  N18   1.401 .      A
N17   C112  1.359 .      A
C112  C113  1.355 .      A
C112  C117  1.361 .      A
C113  C114  1.383 .      A
C114  C115  1.379 .      A
C115  C116  1.379 .      A
C116  C117  1.373 .      A
C117  N18   1.335 .      A
C118  C119  1.382 .      A
C118  C123  1.356 .      A
C119  C120  1.358 .      A
C120  C121  1.359 .      A
C121  C122  1.365 .      A
C122  C123  1.360 .      A
C124  N19   1.398 .      A
C124  N20   1.405 .      A
N19   C125  1.350 .      A
C125  C126  1.365 .      A
C125  C130  1.363 .      A
C126  C127  1.384 .      A
C127  C128  1.383 .      A
C128  C129  1.381 .      A
C129  C130  1.359 .      A
C130  N20   1.343 .      A
C131  C132  1.377 .      A
C131  C136  1.370 .      A
C132  C133  1.376 .      A
C133  C134  1.376 .      A
C134  C135  1.378 .      A
C135  C136  1.376 .      A
C137  N21   1.423 .      A
C137  N22   1.405 .      A
N21   C138  1.333 .      A
C138  C139  1.352 1_655  A
C138  C143  1.335 .      A
C139  C138  1.352 1_455  A
C139  C140  1.385 .      A
C140  C141  1.372 .      A
C141  C142  1.376 1_455  A
C142  C141  1.376 1_655  A
C142  C143  1.343 .      A
C143  N22   1.330 .      A
C144  C145  1.380 .      A
C144  C149  1.369 .      A
C145  C146  1.376 .      A
C146  C147  1.377 .      A
C147  C148  1.379 .      A
C148  C149  1.375 .      A
C150  N23   1.401 .      A
C150  N24   1.407 1_565  A
N23   C151  1.332 .      A
C151  C152  1.341 .      A
C151  C156  1.371 1_565  A
C152  C153  1.372 1_655  A
C153  C152  1.372 1_455  A
C153  C154  1.375 1_565  A
C154  C153  1.375 1_545  A
C154  C155  1.383 .      A
C155  C156  1.393 1_455  A
C156  C151  1.371 1_545  A
C156  C155  1.393 1_655  A
C156  N24   1.376 .      A
N24   C150  1.407 1_545  A
C157  C158  1.378 .      A
C157  C162  1.345 .      A
C158  C159  1.376 .      A
C159  C160  1.378 .      A
C160  C161  1.372 .      A
C161  C162  1.374 .      A
C163  N25   1.391 .      A
C163  N26   1.416 .      A
N25   C164  1.343 .      A
C164  C165  1.341 .      A
C164  C169  1.357 .      A
C165  C166  1.381 .      A
C166  C167  1.381 .      A
C167  C168  1.381 .      A
C168  C169  1.360 .      A
C169  N26   1.344 .      A
C170  C171  1.374 .      A
C170  C175  1.349 .      A
C171  C172  1.359 .      A
C172  C173  1.356 .      A
C173  C174  1.381 .      A
C174  C175  1.354 .      A
C176  N27   1.397 .      A
C176  N28   1.386 .      A
N27   C177  1.356 .      A
C177  C178  1.379 .      A
C177  C182  1.369 .      A
C178  C179  1.373 .      A
C179  C180  1.367 .      A
C180  C181  1.373 .      A
C181  C182  1.389 .      A
C182  N28   1.372 .      A
C183  C184  1.376 .      A
C183  C188  1.375 .      A
C184  C185  1.357 .      A
C185  C186  1.362 .      A
C186  C187  1.383 .      A
C187  C188  1.372 .      A
C189  N29   1.418 .      A
C189  N30   1.415 .      A
N29   C190  1.332 .      A
C190  C191  1.355 1_545  A
C190  C195  1.365 1_545  A
C191  C190  1.355 1_565  A
C191  C192  1.373 .      A
C192  C193  1.371 .      A
C193  C194  1.379 .      A
C194  C195  1.374 .      A
C195  C190  1.365 1_565  A
C195  N30   1.367 1_565  A
N30   C195  1.367 1_545  A
C196  C197  1.380 .      A
C196  C201  1.387 .      A
C197  C198  1.379 .      A
C198  C199  1.379 .      A
C199  C200  1.379 .      A
C200  C201  1.381 .      A
C202  N31   1.401 .      A
C202  N32   1.402 .      A
N31   C203  1.334 .      A
C203  C204  1.333 .      A
C203  C208  1.359 .      A
C204  C205  1.377 1_545  A
C205  C204  1.377 1_565  A
C205  C206  1.377 .      A
C206  C207  1.380 .      A
C207  C208  1.378 1_565  A
C208  C207  1.378 1_545  A
C208  N32   1.356 .      A
C209  C210  1.365 .      A
C209  C214  1.356 .      A
C210  C211  1.356 .      A
C211  C212  1.372 .      A
C212  C213  1.354 .      A
C213  C214  1.354 .      A
C215  N33   1.398 .      A
C215  N34   1.395 .      A
N33   C216  1.344 .      A
C216  C217  1.368 .      A
C216  C221  1.383 .      A
C217  C218  1.381 .      A
C218  C219  1.385 .      A
C219  C220  1.385 .      A
C220  C221  1.374 .      A
C221  N34   1.363 .      A
C222  C223  1.362 .      A
C222  C227  1.335 .      A
C223  C224  1.353 .      A
C224  C225  1.381 .      A
C225  C226  1.352 .      A
C226  C227  1.350 .      A
C228  N35   1.378 .      A
C228  N36   1.390 .      A
N35   C229  1.346 .      A
C229  C230  1.364 .      A
C229  C234  1.373 .      A
C230  C231  1.378 .      A
C231  C232  1.378 .      A
C232  C233  1.380 .      A
C233  C234  1.372 .      A
C234  N36   1.358 .      A
C235  C236  1.373 .      A
C235  C240  1.386 .      A
C236  C237  1.366 .      A
C237  C238  1.365 .      A
C238  C239  1.382 .      A
C239  C240  1.371 .      A
C241  N37   1.400 .      A
C241  N38   1.389 .      A
N37   C242  1.374 .      A
C242  C243  1.386 .      A
C242  C247  1.359 .      A
C243  C244  1.377 .      A
C244  C245  1.376 .      A
C245  C246  1.376 .      A
C246  C247  1.361 .      A
C247  N38   1.333 .      A
C248  C249  1.377 .      A
C248  C253  1.389 .      A
C249  C250  1.371 .      A
C250  C251  1.375 .      A
C251  C252  1.381 .      A
C252  C253  1.362 .      A
C254  N39   1.394 .      A
C254  N40   1.415 .      A
N39   C255  1.338 .      A
C255  C256  1.330 .      A
C255  C260  1.359 .      A
C256  C257  1.382 .      A
C257  C258  1.383 .      A
C258  C259  1.382 .      A
C259  C260  1.367 .      A
C260  N40   1.344 .      A
C261  C262  1.374 .      A
C261  C266  1.345 .      A
C262  C263  1.365 .      A
C263  C264  1.366 .      A
C264  C265  1.347 .      A
C265  C266  1.334 .      A
C267  N41   1.405 .      A
C267  N42   1.400 .      A
N41   C268  1.347 .      A
C268  C269  1.359 .      A
C268  C273  1.373 .      A
C269  C270  1.378 1_554  A
C270  C269  1.378 1_556  A
C270  C271  1.378 .      A
C271  C272  1.380 1_556  A
C272  C271  1.380 1_554  A
C272  C273  1.369 .      A
C273  N42   1.359 .      A
C274  C275  1.378 .      A
C274  C279  1.374 .      A
C275  C276  1.358 .      A
C276  C277  1.366 .      A
C277  C278  1.377 .      A
C278  C279  1.373 .      A
C280  N43   1.395 .      A
C280  N44   1.424 .      A
N43   C281  1.326 .      A
C281  C282  1.328 .      A
C281  C286  1.355 .      A
C282  C283  1.370 .      A
C283  C284  1.377 .      A
C284  C285  1.387 .      A
C285  C286  1.370 .      A
C286  N44   1.354 .      A
C287  C288  1.375 1_554  A
C287  C292  1.376 .      A
C288  C287  1.375 1_556  A
C288  C289  1.370 .      A
C289  C290  1.370 1_556  A
C290  C289  1.370 1_554  A
C290  C291  1.391 .      A
C291  C292  1.370 .      A
C293  N45   1.403 .      A
C293  N46   1.402 .      A
N45   C294  1.372 .      A
C294  C295  1.383 .      A
C294  C299  1.369 .      A
C295  C296  1.380 .      A
C296  C297  1.374 .      A
C297  C298  1.373 .      A
C298  C299  1.358 .      A
C299  N46   1.334 .      A
C300  C301  1.382 1_565  A
C300  C305  1.374 .      A
C301  C300  1.382 1_545  A
C301  C302  1.369 .      A
C302  C303  1.367 .      A
C303  C304  1.377 1_545  A
C304  C303  1.377 1_565  A
C304  C305  1.375 .      A
C306  N47   1.419 .      A
C306  N48   1.411 .      A
N47   C307  1.364 .      A
C307  C308  1.383 .      A
C307  C312  1.364 .      A
C308  C309  1.378 .      A
C309  C310  1.373 .      A
C310  C311  1.378 .      A
C311  C312  1.346 .      A
C312  N48   1.336 .      A
C313  C314  1.375 .      A
C313  C318  1.386 .      A
C314  C315  1.368 .      A
C315  C316  1.375 .      A
C316  C317  1.388 .      A
C317  C318  1.371 .      A
C319  N49   1.399 .      A
C319  N50   1.411 .      A
N49   C320  1.330 .      A
C320  C321  1.328 .      A
C320  C325  1.354 .      A
C321  C322  1.379 .      A
C322  C323  1.377 .      A
C323  C324  1.381 .      A
C324  C325  1.363 .      A
C325  N50   1.348 .      A
C326  C327  1.376 .      A
C326  C331  1.351 .      A
C327  C328  1.353 .      A
C328  C329  1.354 .      A
C329  C330  1.369 .      A
C330  C331  1.357 .      A
C332  N51   1.400 .      A
C332  N52   1.415 .      A
N51   C333  1.352 .      A
C333  C334  1.377 .      A
C333  C338  1.382 .      A
C334  C335  1.384 .      A
C335  C336  1.384 .      A
C336  C337  1.381 .      A
C337  C338  1.370 .      A
C338  N52   1.353 .      A
C339  C340  1.378 .      A
C339  C344  1.381 .      A
C340  C341  1.371 .      A
C341  C342  1.372 .      A
C342  C343  1.383 .      A
C343  C344  1.368 .      A
C345  N53   1.386 .      A
C345  N54   1.408 1_565  A
N53   C346  1.344 .      A
C346  C347  1.346 .      A
C346  C351  1.358 1_565  A
C347  C348  1.381 1_565  A
C348  C347  1.381 1_545  A
C348  C349  1.382 .      A
C349  C350  1.381 .      A
C350  C351  1.363 .      A
C351  C346  1.358 1_545  A
C351  N54   1.339 .      A
N54   C345  1.408 1_545  A
C352  C353  1.366 .      A
C352  C357  1.350 .      A
C353  C354  1.353 .      A
C354  C355  1.351 .      A
C355  C356  1.373 .      A
C356  C357  1.354 .      A
C358  N55   1.389 .      A
C358  N56   1.397 .      A
N55   C359  1.349 .      A
C359  C360  1.369 .      A
C359  C364  1.371 .      A
C360  C361  1.377 .      A
C361  C362  1.377 .      A
C362  C363  1.379 .      A
C363  C364  1.377 .      A
C364  N56   1.361 .      A
C365  C366  1.380 .      A
C365  C370  1.385 .      A
C366  C367  1.378 .      A
C367  C368  1.376 .      A
C368  C369  1.379 .      A
C369  C370  1.375 .      A
C371  N57   1.416 .      A
C371  N58   1.403 .      A
N57   C372  1.339 .      A
C372  C373  1.360 .      A
C372  C377  1.346 .      A
C373  C374  1.374 .      A
C374  C375  1.383 .      A
C375  C376  1.380 .      A
C376  C377  1.364 .      A
C377  N58   1.335 .      A
C378  C379  1.352 .      A
C378  C383  1.337 .      A
C379  C380  1.362 .      A
C380  C381  1.359 .      A
C381  C382  1.387 .      A
C382  C383  1.360 .      A
C384  N59   1.405 .      A
C384  N60   1.401 .      A
N59   C385  1.351 .      A
C385  C386  1.369 .      A
C385  C390  1.374 .      A
C386  C387  1.379 .      A
C387  C388  1.376 .      A
C388  C389  1.379 .      A
C389  C390  1.378 .      A
C390  N60   1.361 .      A
C391  C392  1.361 .      A
C391  C396  1.335 .      A
C392  C393  1.362 .      A
C393  C394  1.355 .      A
C394  C395  1.388 .      A
C395  C396  1.363 .      A
C397  N61   1.393 .      A
C397  N62   1.398 .      A
N61   C398  1.350 .      A
C398  C399  1.369 .      A
C398  C403  1.369 .      A
C399  C400  1.380 .      A
C400  C401  1.384 .      A
C401  C402  1.385 .      A
C402  C403  1.363 .      A
C403  N62   1.344 .      A
C404  C405  1.379 .      A
C404  C409  1.391 .      A
C405  C406  1.370 .      A
C406  C407  1.369 .      A
C407  C408  1.380 .      A
C408  C409  1.378 .      A
C410  N63   1.423 .      A
C410  N64   1.425 .      A
N63   C411  1.333 .      A
C411  C412  1.333 .      A
C411  C416  1.335 .      A
C412  C413  1.380 .      A
C413  C414  1.372 .      A
C414  C415  1.378 .      A
C415  C416  1.345 .      A
C416  N64   1.329 .      A
C417  C418  1.375 .      A
C417  C422  1.376 .      A
C418  C419  1.377 .      A
C419  C420  1.369 .      A
C420  C421  1.375 .      A
C421  C422  1.383 .      A
C423  N65   1.398 1_545  A
C423  N66   1.406 .      A
N65   C423  1.398 1_565  A
N65   C424  1.345 1_565  A
C424  N65   1.345 1_545  A
C424  C425  1.362 1_656  A
C424  C429  1.370 1_556  A
C425  C424  1.362 1_454  A
C425  C426  1.380 .      A
C426  C427  1.377 .      A
C427  C428  1.378 .      A
C428  C429  1.383 1_455  A
C429  C424  1.370 1_554  A
C429  C428  1.383 1_655  A
C429  N66   1.361 1_554  A
N66   C429  1.361 1_556  A
C430  C431  1.378 1_565  A
C430  C435  1.380 .      A
C431  C430  1.378 1_545  A
C431  C432  1.373 1_655  A
C432  C431  1.373 1_455  A
C432  C433  1.378 .      A
C433  C434  1.377 1_545  A
C434  C433  1.377 1_565  A
C434  C435  1.364 1_455  A
C435  C434  1.364 1_655  A
C436  N67   1.413 .      A
C436  N68   1.400 1_554  A
N67   C437  1.355 1_554  A
C437  N67   1.355 1_556  A
C437  C438  1.355 .      A
C437  C442  1.366 .      A
C438  C439  1.383 .      A
C439  C440  1.373 .      A
C440  C441  1.374 .      A
C441  C442  1.358 .      A
C442  N68   1.339 .      A
N68   C436  1.400 1_556  A
C443  C444  1.371 .      A
C443  C448  1.343 .      A
C444  C445  1.351 .      A
C445  C446  1.353 .      A
C446  C447  1.371 .      A
C447  C448  1.364 .      A
C449  N69   1.390 .      A
C449  N70   1.391 .      A
N69   C450  1.354 .      A
C450  C451  1.372 1_565  A
C450  C455  1.377 .      A
C451  C450  1.372 1_545  A
C451  C452  1.383 .      A
C452  C453  1.385 .      A
C453  C454  1.382 1_545  A
C454  C453  1.382 1_565  A
C454  C455  1.374 .      A
C455  N70   1.354 .      A
C456  C457  1.372 1_665  A
C456  C461  1.344 .      A
C457  C456  1.372 1_445  A
C457  C458  1.360 1_545  A
C458  C457  1.360 1_565  A
C458  C459  1.352 .      A
C459  C460  1.373 1_455  A
C460  C459  1.373 1_655  A
C460  C461  1.352 .      A
C462  N71   1.386 .      A
C462  N72   1.396 .      A
N71   C463  1.353 .      A
C463  C464  1.367 .      A
C463  C468  1.364 .      A
C464  C465  1.379 .      A
C465  C466  1.371 .      A
C466  C467  1.374 .      A
C467  C468  1.365 .      A
C468  N72   1.351 .      A
C469  C470  1.358 .      A
C469  C474  1.364 .      A
C470  C471  1.364 .      A
C471  C472  1.355 .      A
C472  C473  1.381 .      A
C473  C474  1.365 .      A
C475  N73   1.394 .      A
C475  N74   1.401 .      A
N73   C476  1.339 .      A
C476  C477  1.365 .      A
C476  C481  1.372 .      A
C477  C478  1.373 .      A
C478  C479  1.374 .      A
C479  C480  1.379 .      A
C480  C481  1.389 .      A
C481  N74   1.373 .      A
C482  C483  1.377 .      A
C482  C487  1.385 .      A
C483  C484  1.370 .      A
C484  C485  1.372 .      A
C485  C486  1.380 .      A
C486  C487  1.366 .      A
C488  N75   1.406 .      A
C488  N76   1.403 .      A
N75   C489  1.367 .      A
C489  C490  1.375 .      A
C489  C494  1.358 .      A
C490  C491  1.380 .      A
C491  C492  1.371 .      A
C492  C493  1.373 .      A
C493  C494  1.338 .      A
C494  N76   1.330 .      A
C495  C496  1.381 .      A
C495  C500  1.368 .      A
C496  C497  1.365 .      A
C497  C498  1.368 .      A
C498  C499  1.380 .      A
C499  C500  1.363 .      A
C501  N77   1.415 .      A
C501  N78   1.411 .      A
N77   C502  1.321 .      A
C502  C503  1.349 .      A
C502  C507  1.363 .      A
C503  C504  1.370 .      A
C504  C505  1.370 .      A
C505  C506  1.380 .      A
C506  C507  1.379 .      A
C507  N78   1.376 .      A
C508  C509  1.382 .      A
C508  C513  1.370 .      A
C509  C510  1.372 .      A
C510  C511  1.370 .      A
C511  C512  1.376 .      A
C512  C513  1.372 .      A
C514  N79   1.414 .      A
C514  N80   1.399 1_554  A
N79   C515  1.369 .      A
C515  C516  1.380 .      A
C515  C520  1.368 1_554  A
C516  C517  1.379 .      A
C517  C518  1.373 1_554  A
C518  C517  1.373 1_556  A
C518  C519  1.374 .      A
C519  C520  1.359 .      A
C520  C515  1.368 1_556  A
C520  N80   1.333 .      A
N80   C514  1.399 1_556  A
C521  C522  1.368 .      A
C521  C526  1.358 .      A
C522  C523  1.339 .      A
C523  C524  1.356 .      A
C524  C525  1.390 .      A
C525  C526  1.376 .      A
C527  N81   1.403 .      A
C527  N82   1.432 .      A
N81   C528  1.354 .      A
C528  C529  1.371 .      A
C528  C533  1.373 .      A
C529  C530  1.380 .      A
C530  C531  1.378 1_655  A
C531  C530  1.378 1_455  A
C531  C532  1.382 1_455  A
C532  C531  1.382 1_655  A
C532  C533  1.370 .      A
C533  N82   1.348 .      A
C534  C535  1.381 .      A
C534  C539  1.389 .      A
C535  C536  1.375 .      A
C536  C537  1.373 1_655  A
C537  C536  1.373 1_455  A
C537  C538  1.379 .      A
C538  C539  1.379 1_455  A
C539  C538  1.379 1_655  A
C540  N83   1.409 1_655  A
C540  N84   1.412 .      A
N83   C540  1.409 1_455  A
N83   C541  1.350 .      A
C541  C542  1.371 .      A
C541  C546  1.374 1_455  A
C542  C543  1.380 1_455  A
C543  C542  1.380 1_655  A
C543  C544  1.380 .      A
C544  C545  1.381 .      A
C545  C546  1.359 .      A
C546  C541  1.374 1_655  A
C546  N84   1.350 .      A
C547  C548  1.363 .      A
C547  C552  1.324 .      A
C548  C549  1.359 .      A
C549  C550  1.359 .      A
C550  C551  1.372 .      A
C551  C552  1.343 .      A
C553  N85   1.388 1_455  A
C553  N86   1.391 .      A
N85   C553  1.388 1_655  A
N85   C554  1.355 .      A
C554  C555  1.360 .      A
C554  C559  1.371 1_655  A
C555  C556  1.378 .      A
C556  C557  1.379 .      A
C557  C558  1.384 1_655  A
C558  C557  1.384 1_455  A
C558  C559  1.362 .      A
C559  C554  1.371 1_455  A
C559  N86   1.346 .      A
C560  C561  1.377 .      A
C560  C565  1.384 .      A
C561  C562  1.369 .      A
C562  C563  1.371 .      A
C563  C564  1.373 .      A
C564  C565  1.375 .      A
C566  N87   1.408 .      A
C566  N88   1.407 .      A
N87   C567  1.355 .      A
C567  C568  1.374 .      A
C567  C572  1.367 .      A
C568  C569  1.372 .      A
C569  C570  1.369 .      A
C570  C571  1.375 .      A
C571  C572  1.400 .      A
C572  N88   1.373 .      A
C573  C574  1.380 .      A
C573  C578  1.378 .      A
C574  C575  1.372 .      A
C575  C576  1.370 .      A
C576  C577  1.378 .      A
C577  C578  1.374 .      A
C579  N89   1.420 .      A
C579  N90   1.419 .      A
N89   C580  1.354 1_556  A
C580  N89   1.354 1_554  A
C580  C581  1.342 .      A
C580  C585  1.349 .      A
C581  C582  1.367 .      A
C582  C583  1.357 .      A
C583  C584  1.368 .      A
C584  C585  1.383 .      A
C585  N90   1.346 1_554  A
N90   C585  1.346 1_556  A
C586  C587  1.367 .      A
C586  C591  1.344 .      A
C587  C588  1.360 .      A
C588  C589  1.354 .      A
C589  C590  1.378 .      A
C590  C591  1.364 .      A
C592  N91   1.396 1_554  A
C592  N92   1.384 1_544  A
N91   C592  1.396 1_556  A
N91   C593  1.341 1_545  A
C593  N91   1.341 1_565  A
C593  C594  1.356 .      A
C593  C598  1.359 .      A
C594  C595  1.383 .      A
C595  C596  1.385 .      A
C596  C597  1.385 .      A
C597  C598  1.338 .      A
C598  N92   1.338 .      A
N92   C592  1.384 1_566  A
C599  C600  1.357 .      A
C599  C604  1.353 .      A
C600  C601  1.377 .      A
C601  C602  1.356 .      A
C602  C603  1.369 .      A
C603  C604  1.359 .      A
C605  N93   1.399 1_556  A
C605  N94   1.397 .      A
N93   C605  1.399 1_554  A
N93   C606  1.359 .      A
C606  C607  1.373 .      A
C606  C611  1.380 .      A
C607  C608  1.382 .      A
C608  C609  1.380 .      A
C609  C610  1.380 .      A
C610  C611  1.373 .      A
C611  N94   1.347 1_554  A
N94   C611  1.347 1_556  A
C612  C613  1.379 .      A
C612  C617  1.381 .      A
C613  C614  1.365 .      A
C614  C615  1.367 .      A
C615  C616  1.368 .      A
C616  C617  1.373 .      A
C618  N95   1.415 .      A
C618  N96   1.392 .      A
N95   C619  1.339 .      A
C619  C620  1.374 .      A
C619  C624  1.361 .      A
C620  C621  1.372 .      A
C621  C622  1.375 .      A
C622  C623  1.379 .      A
C623  C624  1.367 .      A
C624  N96   1.362 .      A
C625  C626  1.386 .      A
C625  C630  1.337 .      A
C626  C627  1.371 .      A
C627  C628  1.349 .      A
C628  C629  1.362 .      A
C629  C630  1.379 .      A
C631  N97   1.421 .      A
C631  N98   1.394 .      A
N97   C632  1.337 .      A
C632  C633  1.344 .      A
C632  C637  1.365 .      A
C633  C634  1.376 .      A
C634  C635  1.380 .      A
C635  C636  1.385 .      A
C636  C637  1.379 .      A
C637  N98   1.355 .      A
C638  C639  1.380 .      A
C638  C643  1.401 .      A
C639  C640  1.370 .      A
C640  C641  1.368 .      A
C641  C642  1.377 .      A
C642  C643  1.351 .      A
C644  N99   1.399 .      A
C644  N100  1.419 .      A
N99   C645  1.349 .      A
C645  C646  1.368 .      A
C645  C650  1.372 .      A
C646  C647  1.379 .      A
C647  C648  1.380 .      A
C648  C649  1.378 .      A
C649  C650  1.361 .      A
C650  N100  1.346 .      A
C651  C652  1.362 .      A
C651  C656  1.343 .      A
C652  C653  1.371 .      A
C653  C654  1.380 .      A
C654  C655  1.377 .      A
C655  C656  1.375 .      A
C657  N101  1.402 .      A
C657  N102  1.414 .      A
N101  C658  1.332 .      A
C658  C659  1.367 .      A
C658  C663  1.358 .      A
C659  C660  1.368 .      A
C660  C661  1.373 .      A
C661  C662  1.376 .      A
C662  C663  1.336 .      A
C663  N102  1.346 .      A
C664  C665  1.373 .      A
C664  C669  1.406 .      A
C665  C666  1.346 .      A
C666  C667  1.345 .      A
C667  C668  1.386 .      A
C668  C669  1.368 .      A
C670  N103  1.423 .      A
C670  N104  1.426 .      A
N103  C671  1.364 .      A
C671  C672  1.369 .      A
C671  C676  1.374 .      A
C672  C673  1.388 .      A
C673  C674  1.386 .      A
C674  C675  1.378 .      A
C675  C676  1.375 .      A
C676  N104  1.335 .      A
C677  C678  1.371 .      A
C677  C682  1.364 .      A
C678  C679  1.351 .      A
C679  C680  1.356 .      A
C680  C681  1.360 .      A
C681  C682  1.342 .      A
C683  N105  1.384 .      A
C683  N106  1.388 .      A
N105  C684  1.352 .      A
C684  C685  1.371 .      A
C684  C689  1.368 .      A
C685  C686  1.383 .      A
C686  C687  1.381 .      A
C687  C688  1.381 .      A
C688  C689  1.364 .      A
C689  N106  1.348 .      A
C690  C691  1.380 .      A
C690  C695  1.380 .      A
C691  C692  1.379 .      A
C692  C693  1.373 .      A
C693  C694  1.378 .      A
C694  C695  1.382 .      A
C696  N107  1.406 .      A
C696  N108  1.400 .      A
N107  C697  1.370 .      A
C697  C698  1.385 .      A
C697  C702  1.365 .      A
C698  C699  1.377 .      A
C699  C700  1.371 .      A
C700  C701  1.377 .      A
C701  C702  1.341 .      A
C702  N108  1.333 .      A
C703  C704  1.376 .      A
C703  C708  1.357 .      A
C704  C705  1.361 1_455  A
C705  C704  1.361 1_655  A
C705  C706  1.373 .      A
C706  C707  1.369 1_655  A
C707  C706  1.369 1_455  A
C707  C708  1.355 .      A
C709  N109  1.405 .      A
C709  N110  1.414 .      A
N109  C710  1.361 .      A
C710  C711  1.379 .      A
C710  C715  1.357 .      A
C711  C712  1.369 .      A
C712  C713  1.367 .      A
C713  C714  1.382 .      A
C714  C715  1.330 .      A
C715  N110  1.334 .      A
C716  C717  1.374 .      A
C716  C721  1.377 .      A
C717  C718  1.369 .      A
C718  C719  1.378 .      A
C719  C720  1.382 .      A
C720  C721  1.364 .      A
C722  N111  1.405 .      A
C722  N112  1.405 .      A
N111  C723  1.347 .      A
C723  C724  1.370 .      A
C723  C728  1.373 .      A
C724  C725  1.378 .      A
C725  C726  1.380 .      A
C726  C727  1.382 .      A
C727  C728  1.367 .      A
C728  N112  1.357 .      A
C729  C730  1.384 .      A
C729  C734  1.382 .      A
C730  C731  1.362 .      A
C731  C732  1.363 .      A
C732  C733  1.389 .      A
C733  C734  1.380 .      A
C735  N113  1.414 .      A
C735  N114  1.406 .      A
N113  C736  1.330 .      A
C736  C737  1.356 .      A
C736  C741  1.357 .      A
C737  C738  1.379 .      A
C738  C739  1.375 .      A
C739  C740  1.382 .      A
C740  C741  1.369 .      A
C741  N114  1.361 .      A
C742  C743  1.378 .      A
C742  C747  1.399 .      A
C743  C744  1.364 .      A
C744  C745  1.366 .      A
C745  C746  1.382 .      A
C746  C747  1.383 .      A
C748  N115  1.424 .      A
C748  N116  1.404 .      A
N115  C749  1.349 .      A
C749  C750  1.372 .      A
C749  C754  1.369 .      A
C750  C751  1.379 .      A
C751  C752  1.383 .      A
C752  C753  1.381 .      A
C753  C754  1.366 .      A
C754  N116  1.352 .      A
C755  C756  1.380 .      A
C755  C760  1.387 .      A
C756  C757  1.372 .      A
C757  C758  1.370 .      A
C758  C759  1.378 .      A
C759  C760  1.377 .      A
C761  N117  1.398 .      A
C761  N118  1.406 .      A
N117  C762  1.341 .      A
C762  C763  1.357 .      A
C762  C767  1.354 .      A
C763  C764  1.381 .      A
C764  C765  1.381 .      A
C765  C766  1.379 .      A
C766  C767  1.352 .      A
C767  N118  1.346 .      A
C768  C769  1.381 .      A
C768  C773  1.372 .      A
C769  C770  1.357 .      A
C770  C771  1.363 .      A
C771  C772  1.362 .      A
C772  C773  1.357 .      A
C774  N119  1.411 .      A
C774  N120  1.400 .      A
N119  C775  1.348 .      A
C775  C776  1.359 .      A
C775  C780  1.362 .      A
C776  C777  1.380 .      A
C777  C778  1.370 .      A
C778  C779  1.365 .      A
C779  C780  1.354 .      A
C780  N120  1.340 .      A
C781  C782  1.386 .      A
C781  C786  1.399 .      A
C782  C783  1.369 .      A
C783  C784  1.364 .      A
C784  C785  1.373 .      A
C785  C786  1.373 .      A
C787  N121  1.411 .      A
C787  N122  1.411 .      A
N121  C788  1.344 .      A
C788  C789  1.364 .      A
C788  C793  1.354 .      A
C789  C790  1.379 .      A
C790  C791  1.373 .      A
C791  C792  1.373 .      A
C792  C793  1.371 .      A
C793  N122  1.356 .      A
C794  C795  1.372 .      A
C794  C799  1.393 1_565  A
C795  C796  1.347 .      A
C796  C797  1.353 1_565  A
C797  C796  1.353 1_545  A
C797  C798  1.380 .      A
C798  C799  1.372 .      A
C799  C794  1.393 1_545  A
C800  N123  1.404 .      A
C800  N124  1.415 .      A
N123  C801  1.349 .      A
C801  C802  1.365 .      A
C801  C806  1.364 .      A
C802  C803  1.378 .      A
C803  C804  1.379 .      A
C804  C805  1.380 .      A
C805  C806  1.367 .      A
C806  N124  1.346 .      A
C807  C808  1.373 .      A
C807  C812  1.380 .      A
C808  C809  1.368 .      A
C809  C810  1.370 .      A
C810  C811  1.379 .      A
C811  C812  1.369 .      A
C813  N125  1.400 .      A
C813  N126  1.396 .      A
N125  C814  1.349 .      A
C814  C815  1.370 .      A
C814  C819  1.370 .      A
C815  C816  1.379 .      A
C816  C817  1.379 .      A
C817  C818  1.383 .      A
C818  C819  1.365 .      A
C819  N126  1.351 .      A
C820  C821  1.340 .      A
C820  C825  1.347 .      A
C821  C822  1.360 .      A
C822  C823  1.358 .      A
C823  C824  1.379 .      A
C824  C825  1.359 .      A
C826  N127  1.385 .      A
C826  N128  1.382 .      A
N127  C827  1.336 .      A
C827  C828  1.371 .      A
C827  C832  1.372 .      A
C828  C829  1.374 .      A
C829  C830  1.374 .      A
C830  C831  1.381 .      A
C831  C832  1.381 .      A
C832  N128  1.377 .      A
C833  C834  1.381 .      A
C833  C838  1.380 .      A
C834  C835  1.372 .      A
C835  C836  1.371 .      A
C836  C837  1.377 .      A
C837  C838  1.376 .      A
C839  N129  1.408 .      A
C839  N130  1.407 .      A
N129  C840  1.340 .      A
C840  C841  1.350 .      A
C840  C845  1.354 .      A
C841  C842  1.381 .      A
C842  C843  1.372 .      A
C843  C844  1.371 .      A
C844  C845  1.349 .      A
C845  N130  1.342 .      A
C846  C847  1.378 .      A
C846  C851  1.393 .      A
C847  C848  1.367 .      A
C848  C849  1.369 .      A
C849  C850  1.370 .      A
C850  C851  1.372 .      A
C852  N131  1.404 .      A
C852  N132  1.408 .      A
N131  C853  1.335 .      A
C853  C854  1.345 .      A
C853  C858  1.356 .      A
C854  C855  1.375 .      A
C855  C856  1.373 .      A
C856  C857  1.380 .      A
C857  C858  1.390 .      A
C858  N132  1.368 .      A
C859  C860  1.379 .      A
C859  C864  1.355 .      A
C860  C861  1.353 .      A
C861  C862  1.358 .      A
C862  C863  1.348 .      A
C863  C864  1.346 .      A
C865  N133  1.406 .      A
C865  N134  1.401 .      A
N133  C866  1.346 .      A
C866  C867  1.377 .      A
C866  C871  1.382 .      A
C867  C868  1.382 .      A
C868  C869  1.384 .      A
C869  C870  1.384 .      A
C870  C871  1.377 .      A
C871  N134  1.362 .      A
C872  C873  1.352 .      A
C872  C877  1.386 .      A
C873  C874  1.337 .      A
C874  C875  1.350 .      A
C875  C876  1.354 .      A
C876  C877  1.355 .      A
C878  N135  1.409 .      A
C878  N136  1.405 .      A
N135  C879  1.346 .      A
C879  C880  1.383 .      A
C879  C884  1.375 .      A
C880  C881  1.373 .      A
C881  C882  1.376 .      A
C882  C883  1.384 .      A
C883  C884  1.390 .      A
C884  N136  1.377 .      A
C885  C886  1.378 .      A
C885  C890  1.391 .      A
C886  C887  1.371 .      A
C887  C888  1.373 .      A
C888  C889  1.381 .      A
C889  C890  1.363 .      A
C891  N137  1.406 .      A
C891  N138  1.399 .      A
N137  C892  1.348 .      A
C892  C893  1.352 .      A
C892  C897  1.368 .      A
C893  C894  1.379 .      A
C894  C895  1.379 .      A
C895  C896  1.380 .      A
C896  C897  1.368 .      A
C897  N138  1.353 .      A
C898  C899  1.371 .      A
C898  C903  1.353 .      A
C899  C900  1.355 .      A
C900  C901  1.358 .      A
C901  C902  1.385 .      A
C902  C903  1.369 .      A
C904  N139  1.394 .      A
C904  N140  1.411 .      A
N139  C905  1.372 .      A
C905  C906  1.385 .      A
C905  C910  1.365 .      A
C906  C907  1.378 .      A
C907  C908  1.376 .      A
C908  C909  1.375 .      A
C909  C910  1.369 .      A
C910  N140  1.338 .      A
C911  C912  1.374 .      A
C911  C916  1.364 .      A
C912  C913  1.378 .      A
C913  C914  1.370 .      A
C914  C915  1.377 .      A
C915  C916  1.371 .      A
C917  N141  1.391 .      A
C917  N142  1.402 .      A
N141  C918  1.341 .      A
C918  C919  1.334 .      A
C918  C923  1.349 .      A
C919  C920  1.373 .      A
C920  C921  1.374 .      A
C921  C922  1.381 .      A
C922  C923  1.369 .      A
C923  N142  1.346 .      A
C924  C925  1.376 .      A
C924  C929  1.376 .      A
C925  C926  1.353 .      A
C926  C927  1.360 .      A
C927  C928  1.387 1_455  A
C928  C927  1.387 1_655  A
C928  C929  1.365 1_655  A
C929  C928  1.365 1_455  A
C930  N143  1.421 .      A
C930  N144  1.402 .      A
N143  C931  1.335 .      A
C931  C932  1.366 .      A
C931  C936  1.362 .      A
C932  C933  1.379 .      A
C933  C934  1.377 .      A
C934  C935  1.383 .      A
C935  C936  1.357 .      A
C936  N144  1.352 .      A
C937  C938  1.381 1_565  A
C937  C942  1.383 .      A
C938  C937  1.381 1_545  A
C938  C939  1.374 .      A
C939  C940  1.373 1_545  A
C940  C939  1.373 1_565  A
C940  C941  1.377 .      A
C941  C942  1.377 .      A
C943  N145  1.408 .      A
C943  N146  1.403 .      A
N145  C944  1.349 .      A
C944  C945  1.367 .      A
C944  C949  1.367 .      A
C945  C946  1.380 .      A
C946  C947  1.381 .      A
C947  C948  1.382 1_554  A
C948  C947  1.382 1_556  A
C948  C949  1.363 1_556  A
C949  C948  1.363 1_554  A
C949  N146  1.346 .      A
C950  C951  1.376 .      A
C950  C955  1.362 .      A
C951  C952  1.350 .      A
C952  C953  1.345 .      A
C953  C954  1.376 .      A
C954  C955  1.347 .      A
C956  N147  1.389 .      A
C956  N148  1.401 .      A
N147  C957  1.341 .      A
C957  C958  1.358 .      A
C957  C962  1.362 .      A
C958  C959  1.379 1_565  A
C959  C958  1.379 1_545  A
C959  C960  1.379 .      A
C960  C961  1.381 .      A
C961  C962  1.367 1_545  A
C962  C961  1.367 1_565  A
C962  N148  1.354 .      A
C963  C964  1.372 .      A
C963  C968  1.390 .      A
C964  C965  1.345 1_565  A
C965  C964  1.345 1_545  A
C965  C966  1.354 .      A
C966  C967  1.394 1_545  A
C967  C966  1.394 1_565  A
C967  C968  1.363 .      A
C969  N149  1.408 .      A
C969  N150  1.415 .      A
N149  C970  1.359 .      A
C970  C971  1.382 .      A
C970  C975  1.364 .      A
C971  C972  1.381 .      A
C972  C973  1.382 .      A
C973  C974  1.384 .      A
C974  C975  1.371 .      A
C975  N150  1.347 .      A
C976  C977  1.382 .      A
C976  C981  1.384 .      A
C977  C978  1.373 .      A
C978  C979  1.372 .      A
C979  C980  1.372 .      A
C980  C981  1.377 .      A
C982  N151  1.404 .      A
C982  N152  1.413 .      A
N151  C983  1.351 .      A
C983  C984  1.359 .      A
C983  C988  1.366 .      A
C984  C985  1.380 .      A
C985  C986  1.382 .      A
C986  C987  1.382 .      A
C987  C988  1.370 .      A
C988  N152  1.345 .      A
C989  C990  1.379 .      A
C989  C994  1.336 .      A
C990  C991  1.378 1_554  A
C991  C990  1.378 1_556  A
C991  C992  1.377 1_556  A
C992  C991  1.377 1_554  A
C992  C993  1.378 .      A
C993  C994  1.376 .      A
C995  N153  1.383 .      A
C995  N154  1.405 .      A
N153  C996  1.340 .      A
C996  C997  1.355 .      A
C996  C1001 1.362 .      A
C997  C998  1.379 .      A
C998  C999  1.377 .      A
C999  C1000 1.379 .      A
C1000 C1001 1.367 .      A
C1001 N154  1.353 .      A
C1002 C1003 1.366 .      A
C1002 C1007 1.378 1_455  A
C1003 C1004 1.347 1_455  A
C1004 C1003 1.347 1_655  A
C1004 C1005 1.362 .      A
C1005 C1006 1.369 .      A
C1006 C1007 1.372 .      A
C1007 C1002 1.378 1_655  A
C1008 N155  1.420 .      A
C1008 N156  1.407 .      A
N155  C1009 1.347 .      A
C1009 C1010 1.354 .      A
C1009 C1014 1.367 .      A
C1010 C1011 1.380 1_554  A
C1011 C1010 1.380 1_556  A
C1011 C1012 1.381 1_556  A
C1012 C1011 1.381 1_554  A
C1012 C1013 1.384 .      A
C1013 C1014 1.361 .      A
C1014 N156  1.343 .      A
C1015 C1016 1.379 .      A
C1015 C1020 1.411 .      A
C1016 C1017 1.361 .      A
C1017 C1018 1.358 .      A
C1018 C1019 1.376 .      A
C1019 C1020 1.389 .      A
C1021 N157  1.425 .      A
C1021 N158  1.428 .      A
N157  C1022 1.332 .      A
C1022 C1023 1.359 .      A
C1022 C1027 1.327 .      A
C1023 C1024 1.376 .      A
C1024 C1025 1.346 .      A
C1025 C1026 1.368 .      A
C1026 C1027 1.341 .      A
C1027 N158  1.332 .      A
C1028 C1029 1.377 .      A
C1028 C1033 1.384 .      A
C1029 C1030 1.368 .      A
C1030 C1031 1.369 .      A
C1031 C1032 1.383 .      A
C1032 C1033 1.364 .      A
C1034 N159  1.414 1_655  A
C1034 N160  1.397 .      A
N159  C1034 1.414 1_455  A
N159  C1035 1.334 .      A
C1035 C1036 1.360 .      A
C1035 C1040 1.373 .      A
C1036 C1037 1.376 .      A
C1037 C1038 1.378 .      A
C1038 C1039 1.381 .      A
C1039 C1040 1.385 .      A
C1040 N160  1.375 1_455  A
N160  C1040 1.375 1_655  A
C1041 C1042 1.372 .      A
C1041 C1046 1.364 .      A
C1042 C1043 1.358 .      A
C1043 C1044 1.370 .      A
C1044 C1045 1.370 .      A
C1045 C1046 1.362 .      A
C1047 N161  1.401 .      A
C1047 N162  1.420 .      A
N161  C1048 1.355 .      A
C1048 C1049 1.361 .      A
C1048 C1053 1.356 .      A
C1049 C1050 1.377 .      A
C1050 C1051 1.376 .      A
C1051 C1052 1.382 .      A
C1052 C1053 1.340 .      A
C1053 N162  1.332 .      A
C1054 C1055 1.375 .      A
C1054 C1059 1.384 .      A
C1055 C1056 1.369 .      A
C1056 C1057 1.373 .      A
C1057 C1058 1.382 .      A
C1058 C1059 1.374 .      A
C1060 N163  1.397 .      A
C1060 N164  1.404 .      A
N163  C1061 1.336 .      A
C1061 C1062 1.356 .      A
C1061 C1066 1.369 .      A
C1062 C1063 1.374 .      A
C1063 C1064 1.374 .      A
C1064 C1065 1.380 .      A
C1065 C1066 1.385 .      A
C1066 N164  1.371 .      A
C1067 C1068 1.377 .      A
C1067 C1072 1.390 .      A
C1068 C1069 1.372 .      A
C1069 C1070 1.372 .      A
C1070 C1071 1.380 .      A
C1071 C1072 1.368 .      A
C1073 N165  1.410 .      A
C1073 N166  1.409 .      A
N165  C1074 1.349 .      A
C1074 C1075 1.372 .      A
C1074 C1079 1.380 .      A
C1075 C1076 1.379 .      A
C1076 C1077 1.382 .      A
C1077 C1078 1.384 .      A
C1078 C1079 1.369 .      A
C1079 N166  1.357 .      A
C1080 C1081 1.367 .      A
C1080 C1085 1.363 .      A
C1081 C1082 1.346 .      A
C1082 C1083 1.358 .      A
C1083 C1084 1.356 .      A
C1084 C1085 1.335 .      A
C1086 N167  1.387 .      A
C1086 N168  1.389 .      A
N167  C1087 1.353 .      A
C1087 C1088 1.372 .      A
C1087 C1092 1.369 .      A
C1088 C1089 1.382 .      A
C1089 C1090 1.381 .      A
C1090 C1091 1.379 .      A
C1091 C1092 1.360 .      A
C1092 N168  1.348 .      A
C1093 C1094 1.375 .      A
C1093 C1098 1.376 .      A
C1094 C1095 1.354 .      A
C1095 C1096 1.365 .      A
C1096 C1097 1.356 .      A
C1097 C1098 1.346 .      A
C1099 N169  1.393 .      A
C1099 N170  1.410 .      A
N169  C1100 1.330 .      A
C1100 C1101 1.367 .      A
C1100 C1105 1.372 .      A
C1101 C1102 1.370 .      A
C1102 C1103 1.373 .      A
C1103 C1104 1.382 .      A
C1104 C1105 1.397 .      A
C1105 N170  1.388 .      A
C1106 C1107 1.379 .      A
C1106 C1111 1.369 .      A
C1107 C1108 1.380 .      A
C1108 C1109 1.378 .      A
C1109 C1110 1.379 .      A
C1110 C1111 1.381 .      A
C1112 N171  1.411 .      A
C1112 N172  1.391 .      A
N171  C1113 1.334 .      A
C1113 C1114 1.360 .      A
C1113 C1118 1.362 .      A
C1114 C1115 1.379 .      A
C1115 C1116 1.380 .      A
C1116 C1117 1.380 .      A
C1117 C1118 1.381 .      A
C1118 N172  1.370 .      A
C1119 C1120 1.377 .      A
C1119 C1124 1.380 .      A
C1120 C1121 1.374 .      A
C1121 C1122 1.378 .      A
C1122 C1123 1.380 .      A
C1123 C1124 1.366 .      A
C1125 N173  1.403 .      A
C1125 N174  1.401 .      A
N173  C1126 1.341 .      A
C1126 C1127 1.355 .      A
C1126 C1131 1.366 .      A
C1127 C1128 1.379 .      A
C1128 C1129 1.378 .      A
C1129 C1130 1.379 .      A
C1130 C1131 1.372 .      A
C1131 N174  1.359 .      A
C1132 C1133 1.368 .      A
C1132 C1137 1.350 .      A
C1133 C1134 1.367 .      A
C1134 C1135 1.367 .      A
C1135 C1136 1.354 .      A
C1136 C1137 1.352 .      A
C1138 N175  1.389 .      A
C1138 N176  1.387 .      A
N175  C1139 1.374 .      A
C1139 C1140 1.386 .      A
C1139 C1144 1.384 .      A
C1140 C1141 1.383 .      A
C1141 C1142 1.382 .      A
C1142 C1143 1.378 .      A
C1143 C1144 1.371 .      A
C1144 N176  1.342 .      A
C1145 C1146 1.376 .      A
C1145 C1150 1.371 .      A
C1146 C1147 1.357 .      A
C1147 C1148 1.363 .      A
C1148 C1149 1.387 .      A
C1149 C1150 1.378 .      A
C1151 N177  1.433 .      A
C1151 N178  1.396 .      A
N177  C1152 1.371 .      A
C1152 C1153 1.370 .      A
C1152 C1157 1.359 .      A
C1153 C1154 1.381 .      A
C1154 C1155 1.372 .      A
C1155 C1156 1.369 .      A
C1156 C1157 1.354 .      A
C1157 N178  1.322 .      A
C1158 C1159 1.377 .      A
C1158 C1163 1.386 .      A
C1159 C1160 1.372 .      A
C1160 C1161 1.374 .      A
C1161 C1162 1.386 .      A
C1162 C1163 1.369 .      A
C1164 N179  1.406 .      A
C1164 N180  1.406 1_554  A
N179  C1165 1.338 .      A
C1165 C1166 1.354 1_554  A
C1165 C1170 1.367 1_554  A
C1166 C1165 1.354 1_556  A
C1166 C1167 1.374 .      A
C1167 C1168 1.372 .      A
C1168 C1169 1.379 .      A
C1169 C1170 1.378 .      A
C1170 C1165 1.367 1_556  A
C1170 N180  1.364 .      A
N180  C1164 1.406 1_556  A
C1171 C1172 1.377 .      A
C1171 C1176 1.381 .      A
C1172 C1173 1.372 .      A
C1173 C1174 1.375 .      A
C1174 C1175 1.382 .      A
C1175 C1176 1.366 .      A
C1177 N181  1.405 .      A
C1177 N182  1.408 .      A
N181  C1178 1.348 .      A
C1178 C1179 1.365 1_556  A
C1178 C1183 1.359 .      A
C1179 C1178 1.365 1_554  A
C1179 C1180 1.385 .      A
C1180 C1181 1.380 .      A
C1181 C1182 1.378 .      A
C1182 C1183 1.335 1_554  A
C1183 C1182 1.335 1_556  A
C1183 N182  1.335 .      A
C1184 C1185 1.362 .      A
C1184 C1189 1.352 .      A
C1185 C1186 1.359 .      A
C1186 C1187 1.357 .      A
C1187 C1188 1.379 .      A
C1188 C1189 1.377 .      A
C1190 N183  1.392 .      A
C1190 N184  1.402 .      A
N183  C1191 1.368 .      A
C1191 C1192 1.377 1_556  A
C1191 C1196 1.368 .      A
C1192 C1191 1.377 1_554  A
C1192 C1193 1.379 .      A
C1193 C1194 1.374 .      A
C1194 C1195 1.375 1_554  A
C1195 C1194 1.375 1_556  A
C1195 C1196 1.369 .      A
C1196 N184  1.339 .      A
C1197 C1198 1.370 .      A
C1197 C1202 1.375 .      A
C1198 C1199 1.347 .      A
C1199 C1200 1.358 .      A
C1200 C1201 1.395 .      A
C1201 C1202 1.371 .      A
C1203 N185  1.412 .      A
C1203 N186  1.407 .      A
N185  C1204 1.337 .      A
C1204 C1205 1.364 .      A
C1204 C1209 1.365 .      A
C1205 C1206 1.376 .      A
C1206 C1207 1.379 .      A
C1207 C1208 1.379 .      A
C1208 C1209 1.391 .      A
C1209 N186  1.379 .      A
C1210 C1211 1.378 .      A
C1210 C1215 1.353 .      A
C1211 C1212 1.360 .      A
C1212 C1213 1.364 .      A
C1213 C1214 1.391 .      A
C1214 C1215 1.376 .      A
C1216 N187  1.442 .      A
C1216 N188  1.398 .      A
N187  C1217 1.352 .      A
C1217 C1218 1.365 .      A
C1217 C1222 1.363 .      A
C1218 C1219 1.381 .      A
C1219 C1220 1.382 .      A
C1220 C1221 1.380 .      A
C1221 C1222 1.365 .      A
C1222 N188  1.345 .      A
C1223 C1224 1.379 .      A
C1223 C1228 1.388 .      A
C1224 C1225 1.371 .      A
C1225 C1226 1.372 .      A
C1226 C1227 1.387 .      A
C1227 C1228 1.366 .      A
C1229 N189  1.398 .      A
C1229 N190  1.393 .      A
N189  C1230 1.346 .      A
C1230 C1231 1.361 .      A
C1230 C1235 1.367 .      A
C1231 C1232 1.382 .      A
C1232 C1233 1.381 .      A
C1233 C1234 1.380 .      A
C1234 C1235 1.367 .      A
C1235 N190  1.350 .      A
C1236 C1237 1.373 .      A
C1236 C1241 1.354 .      A
C1237 C1238 1.373 .      A
C1238 C1239 1.387 .      A
C1239 C1240 1.376 .      A
C1240 C1241 1.377 .      A
C1242 N191  1.409 .      A
C1242 N192  1.411 .      A
N191  C1243 1.349 .      A
C1243 C1244 1.359 .      A
C1243 C1248 1.369 .      A
C1244 C1245 1.385 .      A
C1245 C1246 1.367 .      A
C1246 C1247 1.367 .      A
C1247 C1248 1.378 .      A
C1248 N192  1.356 .      A
