data_str_m1_o12271_SFO
_audit_creation_date              2015-10-01T06:29:13-0700
_symmetry_space_group_name_H-M    P1
_symmetry_Int_Tables_number       1
_space_group_crystal_system       triclinic
loop_
_symmetry_equiv_pos_as_xyz
  x,y,z
_cell_length_a                    15.3037926
_cell_length_b                    28.7857048
_cell_length_c                    27.1956842
_cell_angle_alpha                 114.820652
_cell_angle_beta                  95.1562723
_cell_angle_gamma                 86.5327243
_cell_volume                      10826.4065055

loop_
_atom_site_label
_atom_site_type_symbol
_atom_site_description
_atom_site_fract_x
_atom_site_fract_y
_atom_site_fract_z
_atom_type_partial_charge
Zn1   Zn    Zn3+2 0.643977 0.321119 0.312396 0.000000
Zn2   Zn    Zn3+2 0.598747 0.664475 0.135798 0.000000
Zn3   Zn    Zn3+2 0.062361 0.253845 0.342662 0.000000
Zn4   Zn    Zn3+2 0.294308 0.920233 0.143940 0.000000
Zn5   Zn    Zn3+2 0.041278 0.026287 0.334816 0.000000
Zn6   Zn    Zn3+2 0.641031 0.923438 0.306787 0.000000
Zn7   Zn    Zn3+2 0.403227 0.338999 0.511577 0.000000
Zn8   Zn    Zn3+2 0.867566 0.337179 0.938196 0.000000
Zn9   Zn    Zn3+2 0.496988 0.242343 0.759842 0.000000
Zn10  Zn    Zn3+2 0.294665 0.254485 0.968760 0.000000
Zn11  Zn    Zn3+2 0.615613 0.427895 0.140514 0.000000
Zn12  Zn    Zn3+2 0.861607 0.566189 0.934000 0.000000
Zn13  Zn    Zn3+2 0.396094 0.100844 0.502741 0.000000
Zn14  Zn    Zn3+2 0.318895 0.162795 0.148758 0.000000
Zn15  Zn    Zn3+2 0.261713 0.672131 0.969616 0.000000
Zn16  Zn    Zn3+2 0.494750 0.481289 0.772199 0.000000
Br1   Br    Br    0.817515 0.444645 0.437752 0.000000
C1    C     C_R   0.864583 0.422765 0.369496 0.000000
C2    C     C_R   0.884426 0.464479 0.360388 0.000000
C3    C     C_R   0.930509 0.459083 0.317667 0.000000
C4    C     C_R   0.959555 0.411419 0.284590 0.000000
C5    C     C_R   0.940462 0.369309 0.293362 0.000000
C6    C     C_R   0.889235 0.372617 0.333393 0.000000
C7    C     C_R   0.867346 0.322424 0.334032 0.000000
N1    N     N_R   0.931713 0.288828 0.342340 0.000000
C8    C     C_R   0.881394 0.260809 0.356574 0.000000
C9    C     C_R   0.904760 0.251229 0.401024 0.000000
C10   C     C_R   0.838513 0.243660 0.427432 0.000000
C11   C     C_R   0.753940 0.237284 0.404437 0.000000
C12   C     C_R   0.730648 0.247867 0.360575 0.000000
C13   C     C_R   0.794663 0.266715 0.343462 0.000000
N2    N     N_R   0.781124 0.305447 0.328950 0.000000
H1    H     H_    0.864884 0.502423 0.388561 0.000000
H2    H     H_    0.945252 0.492034 0.310794 0.000000
H3    H     H_    0.993644 0.407041 0.249880 0.000000
H4    H     H_    0.961511 0.331754 0.266293 0.000000
H5    H     H_    0.969900 0.259766 0.420870 0.000000
H6    H     H_    0.851449 0.246614 0.468143 0.000000
H7    H     H_    0.703092 0.233838 0.426201 0.000000
H8    H     H_    0.662360 0.252522 0.349363 0.000000
Br2   Br    Br    0.594623 0.349635 0.575957 0.000000
C14   C     C_R   0.673695 0.350043 0.526324 0.000000
C15   C     C_R   0.757060 0.357119 0.551701 0.000000
C16   C     C_R   0.828263 0.359854 0.526768 0.000000
C17   C     C_R   0.815282 0.358459 0.476237 0.000000
C18   C     C_R   0.731753 0.354506 0.451168 0.000000
C19   C     C_R   0.659080 0.345405 0.472013 0.000000
C20   C     C_R   0.574202 0.337530 0.435589 0.000000
N3    N     N_R   0.491158 0.345696 0.456638 0.000000
C21   C     C_R   0.450429 0.372412 0.430473 0.000000
C22   C     C_R   0.391115 0.412062 0.453159 0.000000
C23   C     C_R   0.371559 0.445533 0.428991 0.000000
C24   C     C_R   0.409674 0.437960 0.381846 0.000000
C25   C     C_R   0.471769 0.399024 0.360894 0.000000
C26   C     C_R   0.495706 0.369642 0.388459 0.000000
N4    N     N_R   0.573346 0.345046 0.387256 0.000000
H9    H     H_    0.766060 0.360596 0.592747 0.000000
H10   H     H_    0.893237 0.364197 0.547120 0.000000
H11   H     H_    0.871540 0.360523 0.456215 0.000000
H12   H     H_    0.724146 0.357961 0.413592 0.000000
H13   H     H_    0.368510 0.420126 0.492043 0.000000
H14   H     H_    0.326759 0.477667 0.446980 0.000000
H15   H     H_    0.393815 0.464063 0.362935 0.000000
H16   H     H_    0.505199 0.394004 0.326065 0.000000
Br3   Br    Br    0.617642 0.834070 0.112464 0.000000
C27   C     C_R   0.697096 0.790735 0.128487 0.000000
C28   C     C_R   0.761800 0.773817 0.093281 0.000000
C29   C     C_R   0.845147 0.768782 0.112186 0.000000
C30   C     C_R   0.864074 0.783803 0.167185 0.000000
C31   C     C_R   0.797999 0.795157 0.201402 0.000000
C32   C     C_R   0.713080 0.797323 0.181733 0.000000
C33   C     C_R   0.645507 0.794866 0.214719 0.000000
N5    N     N_R   0.640606 0.833303 0.268813 0.000000
C34   C     C_R   0.621857 0.803180 0.293728 0.000000
C35   C     C_R   0.623040 0.815904 0.348429 0.000000
C36   C     C_R   0.600366 0.779717 0.365750 0.000000
C37   C     C_R   0.577268 0.731096 0.328497 0.000000
C38   C     C_R   0.580904 0.717520 0.273634 0.000000
C39   C     C_R   0.607006 0.753108 0.257092 0.000000
N6    N     N_R   0.620081 0.745101 0.205697 0.000000
H17   H     H_    0.749141 0.770711 0.052336 0.000000
H18   H     H_    0.894535 0.754656 0.083223 0.000000
H19   H     H_    0.929303 0.781278 0.183380 0.000000
H20   H     H_    0.812791 0.800045 0.242880 0.000000
H21   H     H_    0.642048 0.852787 0.377622 0.000000
H22   H     H_    0.600050 0.789606 0.408724 0.000000
H23   H     H_    0.558341 0.703333 0.342442 0.000000
H24   H     H_    0.564751 0.679715 0.244584 0.000000
Br4   Br    Br    0.176474 0.173074 0.443754 0.000000
C40   C     C_R   0.057830 0.180164 0.459031 0.000000
C41   C     C_R   0.026030 0.192294 0.508866 0.000000
C42   C     C_R   0.939542 0.185361 0.513369 0.000000
C43   C     C_R   0.888274 0.158896 0.467052 0.000000
C44   C     C_R   0.921312 0.146373 0.417556 0.000000
C45   C     C_R   0.003923 0.160503 0.414339 0.000000
C46   C     C_R   0.038666 0.145158 0.362064 0.000000
N7    N     N_R   0.035218 0.179652 0.337839 0.000000
C47   C     C_R   0.995902 0.151119 0.289187 0.000000
C48   C     C_R   0.956171 0.168350 0.252689 0.000000
C49   C     C_R   0.920505 0.132437 0.204636 0.000000
C50   C     C_R   0.931120 0.080831 0.192832 0.000000
C51   C     C_R   0.964340 0.064740 0.232247 0.000000
C52   C     C_R   0.992095 0.101364 0.281218 0.000000
N8    N     N_R   0.021283 0.095448 0.326199 0.000000
H25   H     H_    0.069388 0.199723 0.543418 0.000000
H26   H     H_    0.915839 0.194352 0.552704 0.000000
H27   H     H_    0.822685 0.148884 0.469556 0.000000
H28   H     H_    0.880912 0.128349 0.381183 0.000000
H29   H     H_    0.956825 0.207769 0.258923 0.000000
H30   H     H_    0.895009 0.144498 0.173455 0.000000
H31   H     H_    0.911478 0.052977 0.152501 0.000000
H32   H     H_    0.965946 0.025347 0.225539 0.000000
Br5   Br    Br    0.273748 0.340778 0.358821 0.000000
C53   C     C_R   0.309505 0.272977 0.347209 0.000000
C54   C     C_R   0.341995 0.238443 0.300350 0.000000
C55   C     C_R   0.361496 0.189339 0.292006 0.000000
C56   C     C_R   0.348399 0.174806 0.331801 0.000000
C57   C     C_R   0.317269 0.209298 0.379967 0.000000
C58   C     C_R   0.294405 0.258002 0.386261 0.000000
C59   C     C_R   0.238964 0.292789 0.426391 0.000000
N9    N     N_R   0.274909 0.334547 0.470800 0.000000
C60   C     C_R   0.207896 0.369486 0.480423 0.000000
C61   C     C_R   0.206746 0.419277 0.518614 0.000000
C62   C     C_R   0.132317 0.449252 0.519415 0.000000
C63   C     C_R   0.060402 0.429051 0.483172 0.000000
C64   C     C_R   0.061586 0.378523 0.445490 0.000000
C65   C     C_R   0.135811 0.349181 0.444884 0.000000
N10   N     N_R   0.151512 0.299792 0.410478 0.000000
H33   H     H_    0.341288 0.246914 0.266974 0.000000
H34   H     H_    0.383566 0.161855 0.253747 0.000000
H35   H     H_    0.364367 0.136019 0.324215 0.000000
H36   H     H_    0.314306 0.198446 0.412540 0.000000
H37   H     H_    0.262676 0.435286 0.546294 0.000000
H38   H     H_    0.130327 0.488952 0.548131 0.000000
H39   H     H_    0.003302 0.453280 0.484322 0.000000
H40   H     H_    0.006201 0.363272 0.417269 0.000000
Br6   Br    Br    0.985589 0.889242 0.220094 0.000000
C66   C     C_R   0.988215 0.913235 0.164446 0.000000
C67   C     C_R   0.932425 0.891527 0.117839 0.000000
C68   C     C_R   0.933715 0.905422 0.075501 0.000000
C69   C     C_R   0.004421 0.931088 0.073842 0.000000
C70   C     C_R   0.067246 0.945384 0.116540 0.000000
C71   C     C_R   0.052733 0.945582 0.165911 0.000000
C72   C     C_R   0.123654 0.962482 0.210288 0.000000
N11   N     N_R   0.105763 0.977829 0.264729 0.000000
C73   C     C_R   0.155820 0.944839 0.277583 0.000000
C74   C     C_R   0.132961 0.927462 0.313680 0.000000
C75   C     C_R   0.161473 0.879614 0.307766 0.000000
C76   C     C_R   0.223461 0.854227 0.271455 0.000000
C77   C     C_R   0.248337 0.873504 0.235969 0.000000
C78   C     C_R   0.210014 0.917892 0.238248 0.000000
N12   N     N_R   0.198035 0.932003 0.197052 0.000000
H41   H     H_    0.888293 0.862047 0.112889 0.000000
H42   H     H_    0.887670 0.889521 0.040387 0.000000
H43   H     H_    0.015362 0.934840 0.036974 0.000000
H44   H     H_    0.129461 0.955727 0.110596 0.000000
H45   H     H_    0.084205 0.947753 0.340082 0.000000
H46   H     H_    0.137884 0.862755 0.332733 0.000000
H47   H     H_    0.247474 0.817844 0.269599 0.000000
H48   H     H_    0.288533 0.852333 0.203479 0.000000
Br7   Br    Br    0.476862 0.899268 0.370774 0.000000
C79   C     C_R   0.436421 0.860727 0.300125 0.000000
C80   C     C_R   0.415083 0.813651 0.296013 0.000000
C81   C     C_R   0.407842 0.773446 0.247468 0.000000
C82   C     C_R   0.435022 0.779599 0.204352 0.000000
C83   C     C_R   0.452854 0.826706 0.208253 0.000000
C84   C     C_R   0.443216 0.869423 0.253549 0.000000
C85   C     C_R   0.456846 0.915076 0.243021 0.000000
N13   N     N_R   0.409555 0.919483 0.197551 0.000000
C86   C     C_R   0.472648 0.930633 0.174880 0.000000
C87   C     C_R   0.466846 0.923652 0.122545 0.000000
C88   C     C_R   0.539622 0.930341 0.101263 0.000000
C89   C     C_R   0.609442 0.953645 0.136688 0.000000
C90   C     C_R   0.613708 0.958905 0.190293 0.000000
C91   C     C_R   0.548077 0.940421 0.206037 0.000000
N14   N     N_R   0.542539 0.931779 0.250809 0.000000
H49   H     H_    0.411353 0.807266 0.332168 0.000000
H50   H     H_    0.395063 0.737085 0.246918 0.000000
H51   H     H_    0.449944 0.748103 0.168479 0.000000
H52   H     H_    0.484043 0.831668 0.177789 0.000000
H53   H     H_    0.408893 0.908916 0.098748 0.000000
H54   H     H_    0.538533 0.923113 0.058848 0.000000
H55   H     H_    0.656692 0.968235 0.120634 0.000000
H56   H     H_    0.659228 0.981385 0.221524 0.000000
Br8   Br    Br    0.784655 0.901216 0.194809 0.000000
C92   C     C_R   0.814832 0.969147 0.213009 0.000000
C93   C     C_R   0.800625 0.987633 0.173942 0.000000
C94   C     C_R   0.768633 0.036844 0.188184 0.000000
C95   C     C_R   0.767240 0.070006 0.242135 0.000000
C96   C     C_R   0.795559 0.052609 0.280754 0.000000
C97   C     C_R   0.815707 0.002126 0.266556 0.000000
C98   C     C_R   0.834619 0.982949 0.307826 0.000000
N15   N     N_R   0.778039 0.950609 0.316457 0.000000
C99   C     C_R   0.832247 0.935001 0.348735 0.000000
C100  C     C_R   0.818766 0.895262 0.361995 0.000000
C101  C     C_R   0.880062 0.885035 0.396845 0.000000
C102  C     C_R   0.953795 0.914585 0.417514 0.000000
C103  C     C_R   0.969934 0.952017 0.400436 0.000000
C104  C     C_R   0.910646 0.959709 0.363021 0.000000
N16   N     N_R   0.917514 0.989722 0.336216 0.000000
H57   H     H_    0.798810 0.961676 0.131606 0.000000
H58   H     H_    0.747958 0.049325 0.156653 0.000000
H59   H     H_    0.746626 0.109571 0.254199 0.000000
H60   H     H_    0.796765 0.077207 0.322208 0.000000
H61   H     H_    0.761702 0.872517 0.345615 0.000000
H62   H     H_    0.869594 0.854521 0.408791 0.000000
H63   H     H_    0.000333 0.907358 0.445985 0.000000
H64   H     H_    0.028322 0.973826 0.416412 0.000000
Br9   Br    Br    0.571725 0.226435 0.870202 0.000000
C105  C     C_R   0.541481 0.295867 0.885116 0.000000
C106  C     C_R   0.472857 0.319163 0.915854 0.000000
C107  C     C_R   0.470622 0.370798 0.943533 0.000000
C108  C     C_R   0.536990 0.399327 0.940386 0.000000
C109  C     C_R   0.605801 0.376104 0.908843 0.000000
C110  C     C_R   0.605731 0.324363 0.880474 0.000000
C111  C     C_R   0.672783 0.294821 0.846556 0.000000
N17   N     N_R   0.762404 0.291163 0.865304 0.000000
C112  C     C_R   0.784319 0.245820 0.824824 0.000000
C113  C     C_R   0.863347 0.220194 0.821007 0.000000
C114  C     C_R   0.868600 0.170303 0.781861 0.000000
C115  C     C_R   0.796014 0.147290 0.747715 0.000000
C116  C     C_R   0.717961 0.174627 0.749780 0.000000
C117  C     C_R   0.714140 0.224380 0.786889 0.000000
N18   N     N_R   0.641488 0.254927 0.797891 0.000000
H65   H     H_    0.429855 0.297526 0.926466 0.000000
H66   H     H_    0.421622 0.387257 0.972233 0.000000
H67   H     H_    0.536322 0.439333 0.964641 0.000000
H68   H     H_    0.660704 0.397220 0.907990 0.000000
H69   H     H_    0.918760 0.238155 0.848498 0.000000
H70   H     H_    0.928273 0.147839 0.779208 0.000000
H71   H     H_    0.800581 0.107367 0.720074 0.000000
H72   H     H_    0.659722 0.156810 0.726097 0.000000
Br10  Br    Br    0.979608 0.170742 0.896663 0.000000
C118  C     C_R   0.004978 0.203390 0.972998 0.000000
C119  C     C_R   0.982837 0.179498 0.004291 0.000000
C120  C     C_R   0.997784 0.202738 0.059828 0.000000
C121  C     C_R   0.035265 0.249987 0.084275 0.000000
C122  C     C_R   0.059848 0.273504 0.052983 0.000000
C123  C     C_R   0.044421 0.250353 0.997222 0.000000
C124  C     C_R   0.067928 0.276307 0.964627 0.000000
N19   N     N_R   0.157034 0.281374 0.958559 0.000000
C125  C     C_R   0.148421 0.312791 0.933760 0.000000
C126  C     C_R   0.214392 0.335853 0.923014 0.000000
C127  C     C_R   0.191020 0.363628 0.893140 0.000000
C128  C     C_R   0.105071 0.365859 0.873447 0.000000
C129  C     C_R   0.040111 0.344625 0.887734 0.000000
C130  C     C_R   0.062434 0.321840 0.921307 0.000000
N20   N     N_R   0.006156 0.302420 0.942202 0.000000
H73   H     H_    0.949678 0.143414 0.985393 0.000000
H74   H     H_    0.973964 0.185345 0.084019 0.000000
H75   H     H_    0.042244 0.269212 0.127966 0.000000
H76   H     H_    0.087216 0.311149 0.072472 0.000000
H77   H     H_    0.281846 0.330975 0.935479 0.000000
H78   H     H_    0.241014 0.377484 0.878076 0.000000
H79   H     H_    0.089645 0.381965 0.844576 0.000000
H80   H     H_    0.975395 0.341140 0.869553 0.000000
Br11  Br    Br    0.677253 0.483085 0.034347 0.000000
C131  C     C_R   0.779804 0.495675 0.079773 0.000000
C132  C     C_R   0.810679 0.543463 0.111923 0.000000
C133  C     C_R   0.876410 0.549635 0.152149 0.000000
C134  C     C_R   0.911939 0.507349 0.158793 0.000000
C135  C     C_R   0.883507 0.459335 0.123781 0.000000
C136  C     C_R   0.817311 0.454023 0.083957 0.000000
C137  C     C_R   0.772916 0.406017 0.055102 0.000000
N21   N     N_R   0.720968 0.394425 0.087508 0.000000
C138  C     C_R   0.752718 0.347835 0.080007 0.000000
C139  C     C_R   0.714962 0.315533 0.095805 0.000000
C140  C     C_R   0.753448 0.267992 0.083190 0.000000
C141  C     C_R   0.819246 0.251470 0.048192 0.000000
C142  C     C_R   0.849507 0.283060 0.026733 0.000000
C143  C     C_R   0.817010 0.331835 0.044674 0.000000
N22   N     N_R   0.821749 0.364071 0.020884 0.000000
H81   H     H_    0.778830 0.575875 0.108181 0.000000
H82   H     H_    0.900115 0.587268 0.178331 0.000000
H83   H     H_    0.963774 0.511638 0.190022 0.000000
H84   H     H_    0.914099 0.425960 0.127294 0.000000
H85   H     H_    0.656934 0.328837 0.117065 0.000000
H86   H     H_    0.731676 0.242513 0.098718 0.000000
H87   H     H_    0.832464 0.211004 0.030675 0.000000
H88   H     H_    0.881708 0.268156 0.989778 0.000000
Br12  Br    Br    0.975934 0.486658 0.839435 0.000000
C144  C     C_R   0.935741 0.420779 0.815999 0.000000
C145  C     C_R   0.965301 0.383290 0.768639 0.000000
C146  C     C_R   0.937435 0.333951 0.750307 0.000000
C147  C     C_R   0.874214 0.323638 0.776934 0.000000
C148  C     C_R   0.841846 0.362556 0.822525 0.000000
C149  C     C_R   0.877324 0.410024 0.845195 0.000000
C150  C     C_R   0.877691 0.437444 0.904823 0.000000
N23   N     N_R   0.887882 0.408046 0.934942 0.000000
C151  C     C_R   0.929778 0.440039 0.980533 0.000000
C152  C     C_R   0.978537 0.427214 0.018119 0.000000
C153  C     C_R   0.023269 0.465566 0.060253 0.000000
C154  C     C_R   0.004919 0.515706 0.068550 0.000000
C155  C     C_R   0.954567 0.526724 0.029649 0.000000
C156  C     C_R   0.930312 0.487601 0.982290 0.000000
N24   N     N_R   0.898274 0.489237 0.935000 0.000000
H89   H     H_    0.011908 0.392495 0.746664 0.000000
H90   H     H_    0.960864 0.304339 0.713500 0.000000
H91   H     H_    0.847079 0.285948 0.760256 0.000000
H92   H     H_    0.789533 0.356948 0.842299 0.000000
H93   H     H_    0.983755 0.388848 0.015257 0.000000
H94   H     H_    0.064670 0.457063 0.089898 0.000000
H95   H     H_    0.033621 0.546391 0.104387 0.000000
H96   H     H_    0.945886 0.564195 0.032650 0.000000
Br13  Br    Br    0.509966 0.274507 0.637513 0.000000
C157  C     C_R   0.613846 0.305937 0.679228 0.000000
C158  C     C_R   0.689212 0.297374 0.652183 0.000000
C159  C     C_R   0.757994 0.329297 0.674685 0.000000
C160  C     C_R   0.749984 0.370220 0.723551 0.000000
C161  C     C_R   0.679021 0.375928 0.753373 0.000000
C162  C     C_R   0.611234 0.343020 0.732086 0.000000
C163  C     C_R   0.528688 0.356522 0.758009 0.000000
N25   N     N_R   0.484834 0.401889 0.761023 0.000000
C164  C     C_R   0.402493 0.385555 0.746747 0.000000
C165  C     C_R   0.330088 0.416242 0.747762 0.000000
C166  C     C_R   0.249352 0.394974 0.740074 0.000000
C167  C     C_R   0.243268 0.344616 0.731039 0.000000
C168  C     C_R   0.317133 0.315047 0.733313 0.000000
C169  C     C_R   0.395687 0.337174 0.743974 0.000000
N26   N     N_R   0.473781 0.317477 0.753995 0.000000
H97   H     H_    0.691787 0.268849 0.611109 0.000000
H98   H     H_    0.815861 0.324085 0.652724 0.000000
H99   H     H_    0.800831 0.397773 0.739126 0.000000
H100  H     H_    0.674447 0.407748 0.792313 0.000000
H101  H     H_    0.335769 0.455698 0.755033 0.000000
H102  H     H_    0.189917 0.416590 0.738753 0.000000
H103  H     H_    0.178972 0.329881 0.722541 0.000000
H104  H     H_    0.315143 0.276406 0.729011 0.000000
Br14  Br    Br    0.543634 0.055313 0.652006 0.000000
C170  C     C_R   0.617306 0.091004 0.627207 0.000000
C171  C     C_R   0.702592 0.072646 0.618856 0.000000
C172  C     C_R   0.764258 0.100764 0.610363 0.000000
C173  C     C_R   0.740904 0.148029 0.611628 0.000000
C174  C     C_R   0.655129 0.165705 0.618346 0.000000
C175  C     C_R   0.591556 0.137172 0.624394 0.000000
C176  C     C_R   0.497998 0.153865 0.626250 0.000000
N27   N     N_R   0.440560 0.119422 0.585889 0.000000
C177  C     C_R   0.383264 0.111375 0.614719 0.000000
C178  C     C_R   0.326284 0.071483 0.595459 0.000000
C179  C     C_R   0.268144 0.069651 0.629996 0.000000
C180  C     C_R   0.265275 0.109529 0.680607 0.000000
C181  C     C_R   0.327265 0.147579 0.699509 0.000000
C182  C     C_R   0.392328 0.146078 0.667447 0.000000
N28   N     N_R   0.463701 0.176739 0.677543 0.000000
H105  H     H_    0.721933 0.036856 0.621224 0.000000
H106  H     H_    0.831325 0.086614 0.604754 0.000000
H107  H     H_    0.789414 0.170894 0.606138 0.000000
H108  H     H_    0.637558 0.201232 0.616859 0.000000
H109  H     H_    0.324049 0.043615 0.553807 0.000000
H110  H     H_    0.219535 0.040258 0.615792 0.000000
H111  H     H_    0.210788 0.111801 0.703761 0.000000
H112  H     H_    0.314930 0.181302 0.733497 0.000000
Br15  Br    Br    0.206769 0.130673 0.811616 0.000000
C183  C     C_R   0.186463 0.193744 0.804816 0.000000
C184  C     C_R   0.105822 0.193004 0.777919 0.000000
C185  C     C_R   0.077694 0.231406 0.763398 0.000000
C186  C     C_R   0.132920 0.270257 0.774010 0.000000
C187  C     C_R   0.215852 0.270741 0.798818 0.000000
C188  C     C_R   0.243730 0.234885 0.817488 0.000000
C189  C     C_R   0.334159 0.239895 0.845536 0.000000
N29   N     N_R   0.338434 0.219286 0.883698 0.000000
C190  C     C_R   0.383294 0.174812 0.856240 0.000000
C191  C     C_R   0.391703 0.131248 0.866048 0.000000
C192  C     C_R   0.442657 0.090631 0.833178 0.000000
C193  C     C_R   0.485002 0.093947 0.791817 0.000000
C194  C     C_R   0.473656 0.137020 0.781232 0.000000
C195  C     C_R   0.419072 0.176156 0.812446 0.000000
N30   N     N_R   0.404158 0.222605 0.810845 0.000000
H113  H     H_    0.065463 0.160261 0.766785 0.000000
H114  H     H_    0.013437 0.230581 0.743081 0.000000
H115  H     H_    0.108446 0.301429 0.764762 0.000000
H116  H     H_    0.258455 0.301764 0.808134 0.000000
H117  H     H_    0.358079 0.128325 0.897847 0.000000
H118  H     H_    0.450845 0.056406 0.840414 0.000000
H119  H     H_    0.527520 0.062718 0.767993 0.000000
H120  H     H_    0.509774 0.140978 0.751156 0.000000
Br16  Br    Br    0.464393 0.212807 0.968672 0.000000
C196  C     C_R   0.561912 0.248933 0.998548 0.000000
C197  C     C_R   0.636530 0.221474 0.977980 0.000000
C198  C     C_R   0.695233 0.243784 0.960807 0.000000
C199  C     C_R   0.679335 0.293641 0.968346 0.000000
C200  C     C_R   0.613692 0.323162 0.998972 0.000000
C201  C     C_R   0.553300 0.300846 0.014716 0.000000
C202  C     C_R   0.478355 0.332203 0.042602 0.000000
N31   N     N_R   0.388957 0.317426 0.026919 0.000000
C203  C     C_R   0.349338 0.356281 0.066338 0.000000
C204  C     C_R   0.261753 0.360004 0.074385 0.000000
C205  C     C_R   0.231342 0.401109 0.118299 0.000000
C206  C     C_R   0.289351 0.436679 0.154063 0.000000
C207  C     C_R   0.377725 0.432790 0.144947 0.000000
C208  C     C_R   0.407950 0.391674 0.101807 0.000000
N32   N     N_R   0.492864 0.379089 0.089247 0.000000
H121  H     H_    0.638846 0.180304 0.963221 0.000000
H122  H     H_    0.747436 0.221098 0.936502 0.000000
H123  H     H_    0.721727 0.310895 0.952557 0.000000
H124  H     H_    0.607690 0.363364 0.008574 0.000000
H125  H     H_    0.218366 0.330466 0.048820 0.000000
H126  H     H_    0.162650 0.404510 0.125922 0.000000
H127  H     H_    0.265218 0.467643 0.189600 0.000000
H128  H     H_    0.422202 0.460727 0.172020 0.000000
Br17  Br    Br    0.425309 0.259573 0.097844 0.000000
C209  C     C_R   0.479005 0.193755 0.067654 0.000000
C210  C     C_R   0.564881 0.176911 0.058726 0.000000
C211  C     C_R   0.582672 0.128065 0.020471 0.000000
C212  C     C_R   0.514834 0.097588 0.989143 0.000000
C213  C     C_R   0.429941 0.116329 0.996894 0.000000
C214  C     C_R   0.414983 0.164155 0.037726 0.000000
C215  C     C_R   0.331700 0.191099 0.047670 0.000000
N33   N     N_R   0.281411 0.173739 0.075269 0.000000
C216  C     C_R   0.209291 0.159715 0.040472 0.000000
C217  C     C_R   0.155219 0.121999 0.035154 0.000000
C218  C     C_R   0.114449 0.093171 0.984726 0.000000
C219  C     C_R   0.125312 0.104755 0.941150 0.000000
C220  C     C_R   0.172958 0.146895 0.948802 0.000000
C221  C     C_R   0.213793 0.174148 0.998717 0.000000
N34   N     N_R   0.286434 0.200333 0.005678 0.000000
H129  H     H_    0.618119 0.200833 0.079804 0.000000
H130  H     H_    0.649867 0.114543 0.013627 0.000000
H131  H     H_    0.528302 0.060123 0.957643 0.000000
H132  H     H_    0.376557 0.094399 0.970099 0.000000
H133  H     H_    0.159708 0.109135 0.066447 0.000000
H134  H     H_    0.077373 0.060185 0.978730 0.000000
H135  H     H_    0.095944 0.081090 0.901345 0.000000
H136  H     H_    0.183642 0.156421 0.915935 0.000000
Br18  Br    Br    0.535026 0.511137 0.254817 0.000000
C222  C     C_R   0.573651 0.503991 0.317696 0.000000
C223  C     C_R   0.560675 0.545300 0.366335 0.000000
C224  C     C_R   0.584044 0.541925 0.414585 0.000000
C225  C     C_R   0.620957 0.497065 0.413816 0.000000
C226  C     C_R   0.635394 0.456102 0.365078 0.000000
C227  C     C_R   0.610293 0.458367 0.315699 0.000000
C228  C     C_R   0.627671 0.412703 0.264270 0.000000
N35   N     N_R   0.661293 0.369549 0.271228 0.000000
C229  C     C_R   0.729679 0.356463 0.239503 0.000000
C230  C     C_R   0.780805 0.312175 0.222880 0.000000
C231  C     C_R   0.847479 0.307076 0.189784 0.000000
C232  C     C_R   0.866018 0.347743 0.178059 0.000000
C233  C     C_R   0.807997 0.389279 0.191155 0.000000
C234  C     C_R   0.733000 0.387695 0.213956 0.000000
N36   N     N_R   0.659821 0.417424 0.219250 0.000000
H137  H     H_    0.530796 0.580331 0.366409 0.000000
H138  H     H_    0.572846 0.574066 0.452734 0.000000
H139  H     H_    0.638024 0.493825 0.451659 0.000000
H140  H     H_    0.663164 0.421540 0.366828 0.000000
H141  H     H_    0.767241 0.280797 0.232166 0.000000
H142  H     H_    0.888824 0.272832 0.176251 0.000000
H143  H     H_    0.922509 0.345700 0.156012 0.000000
H144  H     H_    0.817755 0.419945 0.180248 0.000000
Br19  Br    Br    0.459558 0.473873 0.063570 0.000000
C235  C     C_R   0.412773 0.527386 0.124087 0.000000
C236  C     C_R   0.326334 0.531052 0.136837 0.000000
C237  C     C_R   0.304764 0.560027 0.189376 0.000000
C238  C     C_R   0.368498 0.587202 0.228159 0.000000
C239  C     C_R   0.451704 0.588029 0.213226 0.000000
C240  C     C_R   0.473665 0.557729 0.160821 0.000000
C241  C     C_R   0.565150 0.551678 0.147898 0.000000
N37   N     N_R   0.614503 0.513161 0.158138 0.000000
C242  C     C_R   0.680597 0.541749 0.191301 0.000000
C243  C     C_R   0.738557 0.528200 0.224866 0.000000
C244  C     C_R   0.792804 0.564908 0.262805 0.000000
C245  C     C_R   0.788979 0.614384 0.266484 0.000000
C246  C     C_R   0.731303 0.627682 0.232114 0.000000
C247  C     C_R   0.677120 0.590961 0.194375 0.000000
N38   N     N_R   0.609145 0.597816 0.162310 0.000000
H145  H     H_    0.276893 0.506991 0.108486 0.000000
H146  H     H_    0.238446 0.560533 0.200368 0.000000
H147  H     H_    0.352434 0.609450 0.269663 0.000000
H148  H     H_    0.501060 0.609802 0.243871 0.000000
H149  H     H_    0.739026 0.490902 0.224105 0.000000
H150  H     H_    0.837300 0.555208 0.290434 0.000000
H151  H     H_    0.830268 0.643113 0.297163 0.000000
H152  H     H_    0.725473 0.666977 0.238880 0.000000
Br20  Br    Br    0.125048 0.560980 0.021023 0.000000
C248  C     C_R   0.124877 0.531373 0.945195 0.000000
C249  C     C_R   0.148150 0.482193 0.914707 0.000000
C250  C     C_R   0.172712 0.468529 0.862372 0.000000
C251  C     C_R   0.173436 0.504949 0.841820 0.000000
C252  C     C_R   0.141758 0.553140 0.871741 0.000000
C253  C     C_R   0.116048 0.564475 0.922660 0.000000
C254  C     C_R   0.072663 0.611209 0.951610 0.000000
N39   N     N_R   0.981659 0.612733 0.938560 0.000000
C255  C     C_R   0.976514 0.655320 0.929078 0.000000
C256  C     C_R   0.910903 0.666995 0.898138 0.000000
C257  C     C_R   0.923206 0.706072 0.882694 0.000000
C258  C     C_R   0.002562 0.730742 0.895489 0.000000
C259  C     C_R   0.071027 0.716007 0.923038 0.000000
C260  C     C_R   0.056344 0.679461 0.941166 0.000000
N40   N     N_R   0.119011 0.654144 0.959190 0.000000
H153  H     H_    0.153439 0.457073 0.934713 0.000000
H154  H     H_    0.195856 0.430368 0.838587 0.000000
H155  H     H_    0.194351 0.496030 0.802055 0.000000
H156  H     H_    0.134134 0.580997 0.854586 0.000000
H157  H     H_    0.855710 0.642636 0.881285 0.000000
H158  H     H_    0.872704 0.715405 0.857650 0.000000
H159  H     H_    0.012541 0.759730 0.881211 0.000000
H160  H     H_    0.134717 0.732323 0.929021 0.000000
Br21  Br    Br    0.723867 0.672563 0.952502 0.000000
C261  C     C_R   0.682832 0.650220 0.878928 0.000000
C262  C     C_R   0.681326 0.686975 0.858658 0.000000
C263  C     C_R   0.631540 0.681002 0.812003 0.000000
C264  C     C_R   0.579175 0.639354 0.787370 0.000000
C265  C     C_R   0.582887 0.601936 0.806701 0.000000
C266  C     C_R   0.637904 0.604888 0.850906 0.000000
C267  C     C_R   0.666228 0.555891 0.854196 0.000000
N41   N     N_R   0.758243 0.552405 0.862805 0.000000
C268  C     C_R   0.776856 0.521819 0.811351 0.000000
C269  C     C_R   0.842209 0.531112 0.785158 0.000000
C270  C     C_R   0.843022 0.504919 0.729421 0.000000
C271  C     C_R   0.774977 0.473150 0.699887 0.000000
C272  C     C_R   0.702995 0.470127 0.725586 0.000000
C273  C     C_R   0.703245 0.496696 0.780823 0.000000
N42   N     N_R   0.630903 0.513078 0.808935 0.000000
H161  H     H_    0.715190 0.722353 0.881659 0.000000
H162  H     H_    0.629037 0.710456 0.797046 0.000000
H163  H     H_    0.535773 0.635541 0.752339 0.000000
H164  H     H_    0.539950 0.570593 0.787279 0.000000
H165  H     H_    0.890880 0.559532 0.807342 0.000000
H166  H     H_    0.895762 0.510398 0.708622 0.000000
H167  H     H_    0.775748 0.453216 0.656291 0.000000
H168  H     H_    0.647562 0.447687 0.702685 0.000000
Br22  Br    Br    0.526006 0.569087 0.044714 0.000000
C274  C     C_R   0.577939 0.559253 0.982609 0.000000
C275  C     C_R   0.544232 0.518468 0.939788 0.000000
C276  C     C_R   0.592463 0.485999 0.898685 0.000000
C277  C     C_R   0.679864 0.488129 0.908399 0.000000
C278  C     C_R   0.713033 0.528622 0.952464 0.000000
C279  C     C_R   0.663631 0.568677 0.984351 0.000000
C280  C     C_R   0.715322 0.610356 0.023826 0.000000
N43   N     N_R   0.800020 0.612220 0.010409 0.000000
C281  C     C_R   0.837566 0.644715 0.058467 0.000000
C282  C     C_R   0.925149 0.655418 0.071776 0.000000
C283  C     C_R   0.954906 0.672564 0.125790 0.000000
C284  C     C_R   0.896549 0.682351 0.165270 0.000000
C285  C     C_R   0.807269 0.679559 0.151416 0.000000
C286  C     C_R   0.778693 0.660676 0.097805 0.000000
N44   N     N_R   0.697871 0.642726 0.077532 0.000000
H169  H     H_    0.490599 0.504385 0.949552 0.000000
H170  H     H_    0.566669 0.452638 0.865614 0.000000
H171  H     H_    0.720332 0.457755 0.882395 0.000000
H172  H     H_    0.775588 0.525983 0.969069 0.000000
H173  H     H_    0.971434 0.645373 0.041262 0.000000
H174  H     H_    0.023941 0.677831 0.137274 0.000000
H175  H     H_    0.920498 0.695825 0.207451 0.000000
H176  H     H_    0.761275 0.690853 0.181661 0.000000
Br23  Br    Br    0.333042 0.969294 0.346984 0.000000
C287  C     C_R   0.283828 0.951773 0.398712 0.000000
C288  C     C_R   0.287745 0.904601 0.401674 0.000000
C289  C     C_R   0.249986 0.897604 0.441857 0.000000
C290  C     C_R   0.204495 0.937296 0.478576 0.000000
C291  C     C_R   0.194593 0.982588 0.473092 0.000000
C292  C     C_R   0.233275 0.989468 0.432069 0.000000
C293  C     C_R   0.222311 0.037242 0.424779 0.000000
N45   N     N_R   0.255652 0.076991 0.472191 0.000000
C294  C     C_R   0.178768 0.096379 0.495089 0.000000
C295  C     C_R   0.166995 0.118675 0.549356 0.000000
C296  C     C_R   0.085645 0.116859 0.566893 0.000000
C297  C     C_R   0.015872 0.094557 0.529685 0.000000
C298  C     C_R   0.025728 0.076236 0.474584 0.000000
C299  C     C_R   0.107737 0.076843 0.458034 0.000000
N46   N     N_R   0.134547 0.045370 0.409175 0.000000
H177  H     H_    0.314253 0.871225 0.370915 0.000000
H178  H     H_    0.254170 0.860650 0.443488 0.000000
H179  H     H_    0.173609 0.932457 0.510284 0.000000
H180  H     H_    0.155094 0.011692 0.501773 0.000000
H181  H     H_    0.221503 0.131847 0.577663 0.000000
H182  H     H_    0.077079 0.131763 0.609900 0.000000
H183  H     H_    0.952987 0.092543 0.543775 0.000000
H184  H     H_    0.971704 0.058552 0.445582 0.000000
Br24  Br    Br    0.372145 0.092732 0.392721 0.000000
C300  C     C_R   0.493105 0.102225 0.389325 0.000000
C301  C     C_R   0.518679 0.144491 0.383909 0.000000
C302  C     C_R   0.602793 0.149429 0.375923 0.000000
C303  C     C_R   0.666162 0.117695 0.384336 0.000000
C304  C     C_R   0.642749 0.074589 0.389232 0.000000
C305  C     C_R   0.554949 0.065354 0.388445 0.000000
C306  C     C_R   0.531486 0.024412 0.401725 0.000000
N47   N     N_R   0.491318 0.039570 0.450884 0.000000
C307  C     C_R   0.535176 0.008251 0.470762 0.000000
C308  C     C_R   0.518422 0.001542 0.515959 0.000000
C309  C     C_R   0.568486 0.965702 0.528381 0.000000
C310  C     C_R   0.637650 0.939852 0.497851 0.000000
C311  C     C_R   0.652182 0.945908 0.451622 0.000000
C312  C     C_R   0.597201 0.977887 0.436759 0.000000
N48   N     N_R   0.588347 0.980980 0.388088 0.000000
H185  H     H_    0.476109 0.176461 0.389852 0.000000
H186  H     H_    0.617382 0.180453 0.366533 0.000000
H187  H     H_    0.733214 0.128064 0.388890 0.000000
H188  H     H_    0.693575 0.049741 0.395945 0.000000
H189  H     H_    0.464728 0.021234 0.539356 0.000000
H190  H     H_    0.554126 0.957637 0.562121 0.000000
H191  H     H_    0.678328 0.913278 0.509025 0.000000
H192  H     H_    0.704538 0.925288 0.427960 0.000000
Br25  Br    Br    0.145015 0.292558 0.518825 0.000000
C313  C     C_R   0.201587 0.263084 0.561873 0.000000
C314  C     C_R   0.149996 0.272442 0.604053 0.000000
C315  C     C_R   0.165515 0.247575 0.636398 0.000000
C316  C     C_R   0.243720 0.222996 0.634742 0.000000
C317  C     C_R   0.302639 0.219046 0.597803 0.000000
C318  C     C_R   0.282954 0.235768 0.557418 0.000000
C319  C     C_R   0.356087 0.223993 0.519181 0.000000
N49   N     N_R   0.400549 0.176562 0.507078 0.000000
C320  C     C_R   0.481727 0.187304 0.503768 0.000000
C321  C     C_R   0.554767 0.158671 0.507414 0.000000
C322  C     C_R   0.635084 0.177715 0.508618 0.000000
C323  C     C_R   0.639131 0.222183 0.501879 0.000000
C324  C     C_R   0.562985 0.246236 0.491620 0.000000
C325  C     C_R   0.485677 0.233542 0.502561 0.000000
N50   N     N_R   0.408301 0.260667 0.513149 0.000000
H193  H     H_    0.088473 0.293400 0.605880 0.000000
H194  H     H_    0.118484 0.249472 0.664456 0.000000
H195  H     H_    0.257657 0.206717 0.663062 0.000000
H196  H     H_    0.365471 0.202422 0.600914 0.000000
H197  H     H_    0.550453 0.124194 0.513059 0.000000
H198  H     H_    0.694391 0.157693 0.514039 0.000000
H199  H     H_    0.702702 0.237694 0.504862 0.000000
H200  H     H_    0.564075 0.275324 0.477892 0.000000
Br26  Br    Br    0.590947 0.286145 0.171464 0.000000
C326  C     C_R   0.494463 0.326110 0.208639 0.000000
C327  C     C_R   0.470335 0.372134 0.206896 0.000000
C328  C     C_R   0.405225 0.402084 0.237688 0.000000
C329  C     C_R   0.350569 0.380461 0.258044 0.000000
C330  C     C_R   0.366875 0.331019 0.251584 0.000000
C331  C     C_R   0.441712 0.304401 0.230292 0.000000
C332  C     C_R   0.474654 0.256344 0.232714 0.000000
N51   N     N_R   0.443882 0.207384 0.195356 0.000000
C333  C     C_R   0.519769 0.180421 0.190254 0.000000
C334  C     C_R   0.537560 0.139429 0.144181 0.000000
C335  C     C_R   0.623122 0.121909 0.136012 0.000000
C336  C     C_R   0.689616 0.147246 0.173723 0.000000
C337  C     C_R   0.672398 0.190997 0.219247 0.000000
C338  C     C_R   0.586940 0.208056 0.226193 0.000000
N52   N     N_R   0.560666 0.256666 0.255668 0.000000
H201  H     H_    0.508674 0.386835 0.185865 0.000000
H202  H     H_    0.394347 0.441602 0.244835 0.000000
H203  H     H_    0.295864 0.402585 0.279750 0.000000
H204  H     H_    0.319897 0.314578 0.263794 0.000000
H205  H     H_    0.485784 0.125380 0.112580 0.000000
H206  H     H_    0.639096 0.089639 0.099008 0.000000
H207  H     H_    0.755575 0.134099 0.165192 0.000000
H208  H     H_    0.725689 0.212849 0.245269 0.000000
Br27  Br    Br    0.199177 0.102610 0.272995 0.000000
C339  C     C_R   0.144811 0.104704 0.208977 0.000000
C340  C     C_R   0.123683 0.059845 0.167004 0.000000
C341  C     C_R   0.077084 0.057945 0.120384 0.000000
C342  C     C_R   0.045941 0.102495 0.118206 0.000000
C343  C     C_R   0.074662 0.147932 0.158427 0.000000
C344  C     C_R   0.123562 0.148897 0.203949 0.000000
C345  C     C_R   0.171780 0.194004 0.234037 0.000000
N53   N     N_R   0.129025 0.237114 0.270809 0.000000
C346  C     C_R   0.144715 0.272400 0.252463 0.000000
C347  C     C_R   0.123224 0.323225 0.274643 0.000000
C348  C     C_R   0.143405 0.351864 0.247380 0.000000
C349  C     C_R   0.179729 0.328749 0.197624 0.000000
C350  C     C_R   0.209758 0.278590 0.178904 0.000000
C351  C     C_R   0.194701 0.252154 0.208962 0.000000
N54   N     N_R   0.221130 0.204290 0.200150 0.000000
H209  H     H_    0.147519 0.027308 0.172870 0.000000
H210  H     H_    0.061915 0.022442 0.086272 0.000000
H211  H     H_    0.005868 0.101626 0.083049 0.000000
H212  H     H_    0.058232 0.183287 0.154739 0.000000
H213  H     H_    0.096322 0.340679 0.313876 0.000000
H214  H     H_    0.133613 0.392868 0.265506 0.000000
H215  H     H_    0.193165 0.351453 0.176488 0.000000
H216  H     H_    0.245934 0.262181 0.143228 0.000000
Br28  Br    Br    0.483929 0.030791 0.101400 0.000000
C352  C     C_R   0.471157 0.057299 0.178365 0.000000
C353  C     C_R   0.543169 0.067893 0.214120 0.000000
C354  C     C_R   0.539412 0.061141 0.260835 0.000000
C355  C     C_R   0.464168 0.042846 0.269961 0.000000
C356  C     C_R   0.389028 0.040578 0.238571 0.000000
C357  C     C_R   0.392421 0.052176 0.195214 0.000000
C358  C     C_R   0.320743 0.043100 0.156489 0.000000
N55   N     N_R   0.307246 0.075949 0.129695 0.000000
C359  C     C_R   0.277182 0.040875 0.080242 0.000000
C360  C     C_R   0.283540 0.043066 0.031479 0.000000
C361  C     C_R   0.252463 0.003034 0.984374 0.000000
C362  C     C_R   0.217751 0.960748 0.986690 0.000000
C363  C     C_R   0.223932 0.955537 0.035118 0.000000
C364  C     C_R   0.261778 0.994197 0.080524 0.000000
N56   N     N_R   0.291510 0.992503 0.128100 0.000000
H217  H     H_    0.604675 0.073250 0.201767 0.000000
H218  H     H_    0.599630 0.060856 0.284120 0.000000
H219  H     H_    0.464476 0.025886 0.298246 0.000000
H220  H     H_    0.330913 0.024921 0.244858 0.000000
H221  H     H_    0.312770 0.075189 0.030224 0.000000
H222  H     H_    0.254278 0.005040 0.945667 0.000000
H223  H     H_    0.191651 0.930111 0.949893 0.000000
H224  H     H_    0.204226 0.920568 0.035893 0.000000
Br29  Br    Br    0.442528 0.778898 0.078961 0.000000
C365  C     C_R   0.505881 0.736229 0.022675 0.000000
C366  C     C_R   0.528800 0.754592 0.986650 0.000000
C367  C     C_R   0.522453 0.722821 0.932823 0.000000
C368  C     C_R   0.497275 0.673548 0.917542 0.000000
C369  C     C_R   0.493063 0.653656 0.955167 0.000000
C370  C     C_R   0.494025 0.685752 0.008909 0.000000
C371  C     C_R   0.440926 0.673707 0.044027 0.000000
N57   N     N_R   0.472407 0.669580 0.092028 0.000000
C372  C     C_R   0.396348 0.662444 0.109551 0.000000
C373  C     C_R   0.385473 0.658660 0.156642 0.000000
C374  C     C_R   0.300591 0.656987 0.169681 0.000000
C375  C     C_R   0.229591 0.653397 0.133139 0.000000
C376  C     C_R   0.241287 0.659367 0.086418 0.000000
C377  C     C_R   0.325456 0.664277 0.076258 0.000000
N58   N     N_R   0.350336 0.670247 0.033617 0.000000
H225  H     H_    0.533717 0.795260 0.998771 0.000000
H226  H     H_    0.527161 0.737920 0.902949 0.000000
H227  H     H_    0.478282 0.650900 0.875884 0.000000
H228  H     H_    0.476317 0.614741 0.942495 0.000000
H229  H     H_    0.441417 0.662237 0.184601 0.000000
H230  H     H_    0.288308 0.660504 0.209503 0.000000
H231  H     H_    0.164574 0.650773 0.143865 0.000000
H232  H     H_    0.186325 0.662129 0.059950 0.000000
Br30  Br    Br    0.065976 0.813503 0.030597 0.000000
C378  C     C_R   0.116021 0.795271 0.086266 0.000000
C379  C     C_R   0.066593 0.791201 0.123349 0.000000
C380  C     C_R   0.104155 0.775802 0.162085 0.000000
C381  C     C_R   0.191672 0.764591 0.162936 0.000000
C382  C     C_R   0.241701 0.771175 0.127264 0.000000
C383  C     C_R   0.203717 0.786868 0.089449 0.000000
C384  C     C_R   0.253850 0.796208 0.052721 0.000000
N59   N     N_R   0.270150 0.757366 0.001368 0.000000
C385  C     C_R   0.307003 0.784722 0.979269 0.000000
C386  C     C_R   0.335930 0.766157 0.928172 0.000000
C387  C     C_R   0.371484 0.799280 0.911187 0.000000
C388  C     C_R   0.381941 0.849943 0.946571 0.000000
C389  C     C_R   0.356258 0.868223 0.998974 0.000000
C390  C     C_R   0.315966 0.835670 0.015482 0.000000
N60   N     N_R   0.284339 0.845299 0.064743 0.000000
H233  H     H_    0.999802 0.802500 0.122743 0.000000
H234  H     H_    0.067416 0.773030 0.192603 0.000000
H235  H     H_    0.221681 0.752251 0.192866 0.000000
H236  H     H_    0.310553 0.764604 0.129873 0.000000
H237  H     H_    0.334439 0.726372 0.902527 0.000000
H238  H     H_    0.394004 0.785212 0.870764 0.000000
H239  H     H_    0.411886 0.875475 0.933427 0.000000
H240  H     H_    0.368098 0.907707 0.024204 0.000000
Br31  Br    Br    0.402845 0.425805 0.860206 0.000000
C391  C     C_R   0.350880 0.480931 0.909065 0.000000
C392  C     C_R   0.329310 0.464947 0.946702 0.000000
C393  C     C_R   0.309915 0.497220 0.996153 0.000000
C394  C     C_R   0.317329 0.547090 0.009224 0.000000
C395  C     C_R   0.318689 0.563458 0.968265 0.000000
C396  C     C_R   0.346606 0.532660 0.917953 0.000000
C397  C     C_R   0.357777 0.559242 0.880729 0.000000
N61   N     N_R   0.396374 0.539131 0.829279 0.000000
C398  C     C_R   0.363421 0.574493 0.810856 0.000000
C399  C     C_R   0.373849 0.575637 0.761816 0.000000
C400  C     C_R   0.329748 0.613042 0.749099 0.000000
C401  C     C_R   0.273087 0.647747 0.784401 0.000000
C402  C     C_R   0.264978 0.647466 0.834333 0.000000
C403  C     C_R   0.315221 0.612955 0.847960 0.000000
N62   N     N_R   0.317559 0.608712 0.895187 0.000000
H241  H     H_    0.331435 0.425233 0.937070 0.000000
H242  H     H_    0.288793 0.482763 0.023452 0.000000
H243  H     H_    0.303707 0.571222 0.049803 0.000000
H244  H     H_    0.285986 0.598221 0.973610 0.000000
H245  H     H_    0.416230 0.548953 0.733801 0.000000
H246  H     H_    0.337747 0.614295 0.710589 0.000000
H247  H     H_    0.236201 0.675498 0.773195 0.000000
H248  H     H_    0.220476 0.673917 0.862002 0.000000
Br32  Br    Br    0.330568 0.342403 0.622934 0.000000
C404  C     C_R   0.262603 0.401395 0.634204 0.000000
C405  C     C_R   0.172479 0.407714 0.634279 0.000000
C406  C     C_R   0.135555 0.455887 0.646788 0.000000
C407  C     C_R   0.188798 0.496360 0.656863 0.000000
C408  C     C_R   0.278634 0.488682 0.656314 0.000000
C409  C     C_R   0.314664 0.441300 0.648597 0.000000
C410  C     C_R   0.408110 0.428657 0.643790 0.000000
N63   N     N_R   0.465821 0.463383 0.683475 0.000000
C411  C     C_R   0.513114 0.476492 0.651841 0.000000
C412  C     C_R   0.572743 0.514900 0.668198 0.000000
C413  C     C_R   0.615252 0.522800 0.630029 0.000000
C414  C     C_R   0.598229 0.491998 0.575810 0.000000
C415  C     C_R   0.537989 0.453698 0.559513 0.000000
C416  C     C_R   0.493434 0.446578 0.597700 0.000000
N64   N     N_R   0.432874 0.410748 0.590495 0.000000
H249  H     H_    0.130861 0.376300 0.626624 0.000000
H250  H     H_    0.065117 0.461625 0.647241 0.000000
H251  H     H_    0.160090 0.533631 0.663715 0.000000
H252  H     H_    0.319556 0.518703 0.658584 0.000000
H253  H     H_    0.589147 0.537777 0.709655 0.000000
H254  H     H_    0.662978 0.552554 0.642653 0.000000
H255  H     H_    0.632755 0.497624 0.545868 0.000000
H256  H     H_    0.529076 0.431113 0.517655 0.000000

loop_
_geom_bond_atom_site_label_1
_geom_bond_atom_site_label_2
_geom_bond_distance
_geom_bond_site_symmetry_2
_ccdc_geom_bond_type
Zn1   N2    2.167 .      S
Zn1   N4    2.217 .      S
Zn1   N35   2.162 .      S
Zn1   N52   2.231 .      S
Zn2   N6    2.320 .      S
Zn2   N38   2.309 .      S
Zn2   N44   2.165 .      S
Zn2   N57   2.208 .      S
Zn3   N1    2.185 1_455  S
Zn3   N7    2.148 .      S
Zn3   N10   2.175 .      S
Zn3   N53   2.145 .      S
Zn4   N12   2.070 .      S
Zn4   N13   2.190 .      S
Zn4   N56   2.292 .      S
Zn4   N60   2.323 .      S
Zn5   N8    2.102 .      S
Zn5   N11   2.119 1_545  S
Zn5   N16   2.233 1_445  S
Zn5   N46   2.252 .      S
Zn6   N5    2.356 .      S
Zn6   N14   2.121 .      S
Zn6   N15   2.237 .      S
Zn6   N48   2.317 .      S
Zn7   N3    2.171 .      S
Zn7   N9    2.150 .      S
Zn7   N50   2.270 .      S
Zn7   N64   2.301 .      S
Zn8   N17   2.399 .      S
Zn8   N20   2.303 1_655  S
Zn8   N22   2.215 1_556  S
Zn8   N23   2.121 .      S
Zn9   N18   2.337 .      S
Zn9   N26   2.239 .      S
Zn9   N28   2.280 .      S
Zn9   N30   2.319 .      S
Zn10  N19   2.234 .      S
Zn10  N29   2.248 .      S
Zn10  N31   2.317 1_556  S
Zn10  N34   2.194 1_556  S
Zn11  N21   2.161 .      S
Zn11  N32   2.377 .      S
Zn11  N36   2.322 .      S
Zn11  N37   2.294 .      S
Zn12  N24   2.263 .      S
Zn12  N39   2.303 .      S
Zn12  N41   2.300 .      S
Zn12  N43   2.203 1_556  S
Zn13  N27   2.148 .      S
Zn13  N45   2.272 .      S
Zn13  N47   2.279 .      S
Zn13  N49   2.138 .      S
Zn14  N33   2.173 .      S
Zn14  N51   2.325 .      S
Zn14  N54   2.092 .      S
Zn14  N55   2.345 .      S
Zn15  N40   2.241 .      S
Zn15  N58   2.126 1_556  S
Zn15  N59   2.241 1_556  S
Zn15  N62   2.276 .      S
Zn16  N25   2.189 .      S
Zn16  N42   2.295 .      S
Zn16  N61   2.323 .      S
Zn16  N63   2.253 .      S
Br1   C1    1.888 .      S
C2    H1    1.081 .      S
C3    H2    1.081 .      S
C4    H3    1.077 .      S
C5    H4    1.071 .      S
C6    C7    1.510 .      S
N1    Zn3   2.185 1_655  S
C9    H5    1.080 .      S
C10   H6    1.075 .      S
C11   H7    1.052 .      S
C12   H8    1.079 .      S
Br2   C14   1.896 .      S
C15   H9    1.075 .      S
C16   H10   1.081 .      S
C17   H11   1.077 .      S
C18   H12   1.063 .      S
C19   C20   1.528 .      S
C22   H13   1.069 .      S
C23   H14   1.081 .      S
C24   H15   1.081 .      S
C25   H16   1.069 .      S
Br3   C27   1.844 .      S
C28   H17   1.079 .      S
C29   H18   1.076 .      S
C30   H19   1.065 .      S
C31   H20   1.081 .      S
C32   C33   1.452 .      S
C35   H21   1.063 .      S
C36   H22   1.081 .      S
C37   H23   1.081 .      S
C38   H24   1.070 .      S
Br4   C40   1.879 .      S
C41   H25   1.051 .      S
C42   H26   1.081 .      S
C43   H27   1.077 .      S
C44   H28   1.062 .      S
C45   C46   1.442 .      S
C48   H29   1.075 .      S
C49   H30   1.079 .      S
C50   H31   1.081 .      S
C51   H32   1.069 .      S
Br5   C53   1.895 .      S
C54   H33   1.033 .      S
C55   H34   1.078 .      S
C56   H35   1.064 .      S
C57   H36   1.061 .      S
C58   C59   1.435 .      S
C61   H37   1.073 .      S
C62   H38   1.081 .      S
C63   H39   1.079 .      S
C64   H40   1.070 .      S
Br6   C66   1.913 .      S
C67   H41   1.073 .      S
C68   H42   1.081 .      S
C69   H43   1.081 .      S
C70   H44   1.060 .      S
C71   C72   1.485 .      S
N11   Zn5   2.119 1_565  S
C74   H45   1.051 .      S
C75   H46   1.081 .      S
C76   H47   1.071 .      S
C77   H48   1.063 .      S
Br7   C79   1.840 .      S
C80   H49   1.080 .      S
C81   H50   1.070 .      S
C82   H51   1.048 .      S
C83   H52   1.055 .      S
C84   C85   1.487 .      S
C87   H53   1.047 .      S
C88   H54   1.081 .      S
C89   H55   1.066 .      S
C90   H56   1.055 .      S
Br8   C92   1.881 .      S
C93   H57   1.077 .      S
C94   H58   1.077 .      S
C95   H59   1.080 .      S
C96   H60   1.049 .      S
C97   C98   1.446 1_545  S
C98   C97   1.446 1_565  S
C100  H61   1.070 .      S
C101  H62   1.081 .      S
C102  H63   1.081 1_655  S
C103  H64   1.073 1_655  S
N16   Zn5   2.233 1_665  S
H63   C102  1.081 1_455  S
H64   C103  1.073 1_455  S
Br9   C105  1.901 .      S
C106  H65   1.067 .      S
C107  H66   1.071 .      S
C108  H67   1.060 .      S
C109  H68   1.074 .      S
C110  C111  1.426 .      S
C113  H69   1.077 .      S
C114  H70   1.076 .      S
C115  H71   1.079 .      S
C116  H72   1.071 .      S
Br10  C118  1.899 1_655  S
C118  Br10  1.899 1_455  S
C119  H73   1.081 1_554  S
C120  H74   1.076 .      S
C121  H75   1.078 .      S
C122  H76   1.079 .      S
C123  C124  1.456 .      S
C126  H77   1.077 .      S
C127  H78   1.069 .      S
C128  H79   1.071 .      S
C129  H80   1.057 1_455  S
N20   Zn8   2.303 1_455  S
H73   C119  1.081 1_556  S
H80   C129  1.057 1_655  S
Br11  C131  1.861 .      S
C132  H81   1.065 .      S
C133  H82   1.080 .      S
C134  H83   1.081 .      S
C135  H84   1.080 .      S
C136  C137  1.447 .      S
C139  H85   1.065 .      S
C140  H86   1.069 .      S
C141  H87   1.071 .      S
C142  H88   1.067 1_554  S
N22   Zn8   2.215 1_554  S
H88   C142  1.067 1_556  S
Br12  C144  1.854 .      S
C145  H89   1.081 1_655  S
C146  H90   1.081 .      S
C147  H91   1.078 .      S
C148  H92   1.059 .      S
C149  C150  1.475 .      S
C152  H93   1.073 .      S
C153  H94   1.080 .      S
C154  H95   1.082 .      S
C155  H96   1.048 .      S
H89   C145  1.081 1_455  S
Br13  C157  1.903 .      S
C158  H97   1.076 .      S
C159  H98   1.080 .      S
C160  H99   1.071 .      S
C161  H100  1.075 .      S
C162  C163  1.454 .      S
C165  H101  1.076 .      S
C166  H102  1.077 .      S
C167  H103  1.062 .      S
C168  H104  1.071 .      S
Br14  C170  1.908 .      S
C171  H105  1.081 .      S
C172  H106  1.081 .      S
C173  H107  1.081 .      S
C174  H108  1.058 .      S
C175  C176  1.481 .      S
C178  H109  1.078 .      S
C179  H110  1.081 .      S
C180  H111  1.072 .      S
C181  H112  1.043 .      S
Br15  C183  1.905 .      S
C184  H113  1.076 .      S
C185  H114  1.080 .      S
C186  H115  1.068 .      S
C187  H116  1.067 .      S
C188  C189  1.503 .      S
C191  H117  1.080 .      S
C192  H118  1.081 .      S
C193  H119  1.080 .      S
C194  H120  1.075 .      S
Br16  C196  1.797 .      S
C197  H121  1.079 .      S
C198  H122  1.082 .      S
C199  H123  1.058 .      S
C200  H124  1.074 1_556  S
C201  C202  1.470 .      S
N31   Zn10  2.317 1_554  S
C204  H125  1.066 .      S
C205  H126  1.080 .      S
C206  H127  1.080 .      S
C207  H128  1.064 .      S
H124  C200  1.074 1_554  S
Br17  C209  1.888 .      S
C210  H129  1.058 .      S
C211  H130  1.081 .      S
C212  H131  1.081 .      S
C213  H132  1.080 .      S
C214  C215  1.437 .      S
C217  H133  1.057 .      S
C218  H134  1.081 .      S
C219  H135  1.081 .      S
C220  H136  1.067 .      S
N34   Zn10  2.194 1_554  S
Br18  C222  1.848 .      S
C223  H137  1.081 .      S
C224  H138  1.081 .      S
C225  H139  1.080 .      S
C226  H140  1.076 .      S
C227  C228  1.495 .      S
C230  H141  1.071 .      S
C231  H142  1.081 .      S
C232  H143  1.081 .      S
C233  H144  1.065 .      S
Br19  C235  1.883 .      S
C236  H145  1.076 .      S
C237  H146  1.081 .      S
C238  H147  1.081 .      S
C239  H148  1.079 .      S
C240  C241  1.457 .      S
C243  H149  1.065 .      S
C244  H150  1.080 .      S
C245  H151  1.081 .      S
C246  H152  1.066 .      S
Br20  C248  1.872 1_554  S
C248  Br20  1.872 1_556  S
C249  H153  1.068 .      S
C250  H154  1.072 .      S
C251  H155  1.076 .      S
C252  H156  1.080 .      S
C253  C254  1.403 .      S
C256  H157  1.071 .      S
C257  H158  1.080 .      S
C258  H159  1.081 .      S
C259  H160  1.077 .      S
Br21  C261  1.885 .      S
C262  H161  1.081 .      S
C263  H162  1.081 .      S
C264  H163  1.081 .      S
C265  H164  1.065 .      S
C266  C267  1.487 .      S
C269  H165  1.080 .      S
C270  H166  1.081 .      S
C271  H167  1.080 .      S
C272  H168  1.076 .      S
Br22  C274  1.838 1_554  S
C274  Br22  1.838 1_556  S
C275  H169  1.038 .      S
C276  H170  1.070 .      S
C277  H171  1.069 .      S
C278  H172  1.034 .      S
C279  C280  1.449 1_556  S
C280  C279  1.449 1_554  S
N43   Zn12  2.203 1_554  S
C282  H173  1.074 .      S
C283  H174  1.076 1_655  S
C284  H175  1.081 .      S
C285  H176  1.063 .      S
H174  C283  1.076 1_455  S
Br23  C287  1.906 .      S
C288  H177  1.061 .      S
C289  H178  1.081 .      S
C290  H179  1.081 .      S
C291  H180  1.073 1_565  S
C292  C293  1.468 1_565  S
C293  C292  1.468 1_545  S
C295  H181  1.054 .      S
C296  H182  1.081 .      S
C297  H183  1.081 1_455  S
C298  H184  1.078 1_455  S
H180  C291  1.073 1_545  S
H183  C297  1.081 1_655  S
H184  C298  1.078 1_655  S
Br24  C300  1.903 .      S
C301  H185  1.058 .      S
C302  H186  1.067 .      S
C303  H187  1.068 .      S
C304  H188  1.080 .      S
C305  C306  1.442 .      S
C308  H189  1.066 .      S
C309  H190  1.080 .      S
C310  H191  1.081 .      S
C311  H192  1.060 .      S
Br25  C313  1.845 .      S
C314  H193  1.080 .      S
C315  H194  1.078 .      S
C316  H195  1.058 .      S
C317  H196  1.060 .      S
C318  C319  1.522 .      S
C321  H197  1.073 .      S
C322  H198  1.078 .      S
C323  H199  1.077 .      S
C324  H200  1.052 .      S
Br26  C326  1.901 .      S
C327  H201  1.070 .      S
C328  H202  1.076 .      S
C329  H203  1.079 .      S
C330  H204  1.033 .      S
C331  C332  1.469 .      S
C334  H205  1.074 .      S
C335  H206  1.080 .      S
C336  H207  1.067 .      S
C337  H208  1.071 .      S
Br27  C339  1.884 .      S
C340  H209  1.053 .      S
C341  H210  1.074 .      S
C342  H211  1.080 .      S
C343  H212  1.077 .      S
C344  C345  1.420 .      S
C347  H213  1.079 .      S
C348  H214  1.078 .      S
C349  H215  1.074 .      S
C350  H216  1.073 .      S
Br28  C352  1.928 .      S
C353  H217  1.068 .      S
C354  H218  1.072 .      S
C355  H219  1.070 .      S
C356  H220  1.079 .      S
C357  C358  1.406 .      S
C360  H221  1.066 .      S
C361  H222  1.081 .      S
C362  H223  1.081 .      S
C363  H224  1.077 .      S
Br29  C365  1.826 .      S
C366  H225  1.080 .      S
C367  H226  1.079 .      S
C368  H227  1.066 .      S
C369  H228  1.065 .      S
C370  C371  1.464 .      S
C373  H229  1.072 .      S
C374  H230  1.077 .      S
C375  H231  1.077 .      S
C376  H232  1.078 .      S
N58   Zn15  2.126 1_554  S
Br30  C378  1.888 .      S
C379  H233  1.055 1_455  S
C380  H234  1.075 .      S
C381  H235  1.075 .      S
C382  H236  1.061 .      S
C383  C384  1.431 .      S
N59   Zn15  2.241 1_554  S
C386  H237  1.062 .      S
C387  H238  1.081 .      S
C388  H239  1.081 .      S
C389  H240  1.069 1_556  S
H233  C379  1.055 1_655  S
H240  C389  1.069 1_554  S
Br31  C391  1.784 .      S
C392  H241  1.059 .      S
C393  H242  1.071 1_556  S
C394  H243  1.060 .      S
C395  H244  1.050 .      S
C396  C397  1.529 .      S
C399  H245  1.062 .      S
C400  H246  1.081 .      S
C401  H247  1.081 .      S
C402  H248  1.076 .      S
H242  C393  1.071 1_554  S
Br32  C404  1.862 .      S
C405  H249  1.074 .      S
C406  H250  1.081 .      S
C407  H251  1.081 .      S
C408  H252  1.075 .      S
C409  C410  1.458 .      S
C412  H253  1.055 .      S
C413  H254  1.081 .      S
C414  H255  1.080 .      S
C415  H256  1.048 .      S
C1    C2    1.379 .      A
C1    C6    1.415 .      A
C2    C3    1.362 .      A
C3    C4    1.361 .      A
C4    C5    1.382 .      A
C5    C6    1.366 .      A
C7    N1    1.409 .      A
C7    N2    1.410 .      A
N1    C8    1.336 .      A
C8    C9    1.362 .      A
C8    C13   1.362 .      A
C9    C10   1.371 .      A
C10   C11   1.374 .      A
C11   C12   1.363 .      A
C12   C13   1.352 .      A
C13   N2    1.330 .      A
C14   C15   1.379 .      A
C14   C19   1.424 .      A
C15   C16   1.357 .      A
C16   C17   1.355 .      A
C17   C18   1.381 .      A
C18   C19   1.378 .      A
C20   N3    1.407 .      A
C20   N4    1.418 .      A
N3    C21   1.345 .      A
C21   C22   1.375 .      A
C21   C26   1.361 .      A
C22   C23   1.382 .      A
C23   C24   1.384 .      A
C24   C25   1.384 .      A
C25   C26   1.363 .      A
C26   N4    1.342 .      A
C27   C28   1.362 .      A
C27   C32   1.380 .      A
C28   C29   1.354 .      A
C29   C30   1.379 .      A
C30   C31   1.367 .      A
C31   C32   1.368 .      A
C33   N5    1.427 .      A
C33   N6    1.421 .      A
N5    C34   1.361 .      A
C34   C35   1.373 .      A
C34   C39   1.384 .      A
C35   C36   1.383 .      A
C36   C37   1.384 .      A
C37   C38   1.380 .      A
C38   C39   1.371 .      A
C39   N6    1.349 .      A
C40   C41   1.377 .      A
C40   C45   1.333 .      A
C41   C42   1.374 1_455  A
C42   C41   1.374 1_655  A
C42   C43   1.368 .      A
C43   C44   1.375 .      A
C44   C45   1.372 1_655  A
C45   C44   1.372 1_455  A
C46   N7    1.400 .      A
C46   N8    1.377 .      A
N7    C47   1.338 1_455  A
C47   N7    1.338 1_655  A
C47   C48   1.367 .      A
C47   C52   1.360 .      A
C48   C49   1.371 .      A
C49   C50   1.384 .      A
C50   C51   1.383 .      A
C51   C52   1.356 .      A
C52   N8    1.339 1_655  A
N8    C52   1.339 1_455  A
C53   C54   1.360 .      A
C53   C58   1.344 .      A
C54   C55   1.353 .      A
C55   C56   1.347 .      A
C56   C57   1.375 .      A
C57   C58   1.366 .      A
C59   N9    1.396 .      A
C59   N10   1.398 .      A
N9    C60   1.354 .      A
C60   C61   1.372 .      A
C60   C65   1.380 .      A
C61   C62   1.383 .      A
C62   C63   1.386 .      A
C63   C64   1.384 .      A
C64   C65   1.371 .      A
C65   N10   1.355 .      A
C66   C67   1.390 .      A
C66   C71   1.384 1_655  A
C67   C68   1.370 .      A
C68   C69   1.361 1_655  A
C69   C68   1.361 1_455  A
C69   C70   1.374 .      A
C70   C71   1.378 .      A
C71   C66   1.384 1_455  A
C72   N11   1.404 .      A
C72   N12   1.372 .      A
N11   C73   1.324 .      A
C73   C74   1.353 .      A
C73   C78   1.349 .      A
C74   C75   1.366 .      A
C75   C76   1.374 .      A
C76   C77   1.388 .      A
C77   C78   1.353 .      A
C78   N12   1.338 .      A
C79   C80   1.369 .      A
C79   C84   1.404 .      A
C80   C81   1.342 .      A
C81   C82   1.360 .      A
C82   C83   1.358 .      A
C83   C84   1.338 .      A
C85   N13   1.424 .      A
C85   N14   1.392 .      A
N13   C86   1.314 .      A
C86   C87   1.347 .      A
C86   C91   1.339 .      A
C87   C88   1.359 .      A
C88   C89   1.371 .      A
C89   C90   1.397 .      A
C90   C91   1.345 .      A
C91   N14   1.352 .      A
C92   C93   1.371 .      A
C92   C97   1.364 1_565  A
C93   C94   1.373 1_565  A
C94   C93   1.373 1_545  A
C94   C95   1.375 .      A
C95   C96   1.369 .      A
C96   C97   1.361 .      A
C97   C92   1.364 1_545  A
C98   N15   1.410 .      A
C98   N16   1.404 .      A
N15   C99   1.348 .      A
C99   C100  1.367 .      A
C99   C104  1.372 .      A
C100  C101  1.381 .      A
C101  C102  1.383 .      A
C102  C103  1.382 .      A
C103  C104  1.381 .      A
C104  N16   1.357 .      A
C105  C106  1.361 .      A
C105  C110  1.365 .      A
C106  C107  1.355 .      A
C107  C108  1.374 .      A
C108  C109  1.374 .      A
C109  C110  1.360 .      A
C111  N17   1.433 .      A
C111  N18   1.406 .      A
N17   C112  1.355 .      A
C112  C113  1.367 .      A
C112  C117  1.395 .      A
C113  C114  1.386 .      A
C114  C115  1.386 .      A
C115  C116  1.382 .      A
C116  C117  1.364 .      A
C117  N18   1.349 .      A
C118  C119  1.372 1_456  A
C118  C123  1.380 .      A
C119  C118  1.372 1_654  A
C119  C120  1.374 .      A
C120  C121  1.374 1_655  A
C121  C120  1.374 1_455  A
C121  C122  1.377 .      A
C122  C123  1.380 1_554  A
C123  C122  1.380 1_556  A
C124  N19   1.412 .      A
C124  N20   1.423 .      A
N19   C125  1.331 .      A
C125  C126  1.357 .      A
C125  C130  1.366 .      A
C126  C127  1.373 .      A
C127  C128  1.383 .      A
C128  C129  1.362 .      A
C129  C130  1.342 .      A
C130  N20   1.338 .      A
C131  C132  1.369 .      A
C131  C136  1.341 .      A
C132  C133  1.379 .      A
C133  C134  1.377 .      A
C134  C135  1.378 .      A
C135  C136  1.380 .      A
C137  N21   1.387 .      A
C137  N22   1.398 .      A
N21   C138  1.336 .      A
C138  C139  1.352 .      A
C138  C143  1.359 .      A
C139  C140  1.372 .      A
C140  C141  1.371 .      A
C141  C142  1.388 .      A
C142  C143  1.357 .      A
C143  N22   1.344 .      A
C144  C145  1.381 .      A
C144  C149  1.376 .      A
C145  C146  1.374 .      A
C146  C147  1.375 .      A
C147  C148  1.384 .      A
C148  C149  1.365 .      A
C150  N23   1.398 .      A
C150  N24   1.407 .      A
N23   C151  1.329 .      A
C151  C152  1.373 1_556  A
C151  C156  1.350 .      A
C152  C151  1.373 1_554  A
C152  C153  1.374 1_655  A
C153  C152  1.374 1_455  A
C153  C154  1.379 .      A
C154  C155  1.385 1_455  A
C155  C154  1.385 1_655  A
C155  C156  1.346 1_554  A
C156  C155  1.346 1_556  A
C156  N24   1.353 .      A
C157  C158  1.378 .      A
C157  C162  1.387 .      A
C158  C159  1.362 .      A
C159  C160  1.366 .      A
C160  C161  1.374 .      A
C161  C162  1.364 .      A
C163  N25   1.406 .      A
C163  N26   1.406 .      A
N25   C164  1.338 .      A
C164  C165  1.369 .      A
C164  C169  1.373 .      A
C165  C166  1.372 .      A
C166  C167  1.372 .      A
C167  C168  1.386 .      A
C168  C169  1.345 .      A
C169  N26   1.347 .      A
C170  C171  1.380 .      A
C170  C175  1.394 .      A
C171  C172  1.374 .      A
C172  C173  1.373 .      A
C173  C174  1.378 .      A
C174  C175  1.374 .      A
C176  N27   1.407 .      A
C176  N28   1.405 .      A
N27   C177  1.318 .      A
C177  C178  1.374 .      A
C177  C182  1.361 .      A
C178  C179  1.369 .      A
C179  C180  1.376 .      A
C180  C181  1.389 .      A
C181  C182  1.369 .      A
C182  N28   1.381 .      A
C183  C184  1.373 .      A
C183  C188  1.421 .      A
C184  C185  1.357 .      A
C185  C186  1.359 .      A
C186  C187  1.381 .      A
C187  C188  1.361 .      A
C189  N29   1.390 .      A
C189  N30   1.417 .      A
N29   C190  1.361 .      A
C190  C191  1.384 .      A
C190  C195  1.370 .      A
C191  C192  1.383 .      A
C192  C193  1.387 .      A
C193  C194  1.384 .      A
C194  C195  1.378 .      A
C195  N30   1.361 .      A
C196  C197  1.370 .      A
C196  C201  1.371 1_556  A
C197  C198  1.355 .      A
C198  C199  1.371 .      A
C199  C200  1.370 .      A
C200  C201  1.351 1_556  A
C201  C196  1.371 1_554  A
C201  C200  1.351 1_554  A
C202  N31   1.431 .      A
C202  N32   1.424 .      A
N31   C203  1.340 .      A
C203  C204  1.368 .      A
C203  C208  1.379 .      A
C204  C205  1.375 .      A
C205  C206  1.379 .      A
C206  C207  1.386 .      A
C207  C208  1.363 .      A
C208  N32   1.362 .      A
C209  C210  1.379 .      A
C209  C214  1.313 .      A
C210  C211  1.382 .      A
C211  C212  1.377 1_554  A
C212  C211  1.377 1_556  A
C212  C213  1.376 .      A
C213  C214  1.380 1_556  A
C214  C213  1.380 1_554  A
C215  N33   1.368 .      A
C215  N34   1.395 .      A
N33   C216  1.350 .      A
C216  C217  1.356 .      A
C216  C221  1.371 1_554  A
C217  C218  1.383 1_554  A
C218  C217  1.383 1_556  A
C218  C219  1.385 .      A
C219  C220  1.384 .      A
C220  C221  1.364 .      A
C221  C216  1.371 1_556  A
C221  N34   1.335 1_556  A
N34   C221  1.335 1_554  A
C222  C223  1.379 .      A
C222  C227  1.378 .      A
C223  C224  1.370 .      A
C224  C225  1.370 .      A
C225  C226  1.380 .      A
C226  C227  1.390 .      A
C228  N35   1.395 .      A
C228  N36   1.420 .      A
N35   C229  1.350 .      A
C229  C230  1.379 .      A
C229  C234  1.353 .      A
C230  C231  1.382 .      A
C231  C232  1.387 .      A
C232  C233  1.384 .      A
C233  C234  1.365 .      A
C234  N36   1.348 .      A
C235  C236  1.384 .      A
C235  C240  1.352 .      A
C236  C237  1.377 .      A
C237  C238  1.375 .      A
C238  C239  1.375 .      A
C239  C240  1.383 .      A
C241  N37   1.413 .      A
C241  N38   1.412 .      A
N37   C242  1.352 .      A
C242  C243  1.372 .      A
C242  C247  1.382 .      A
C243  C244  1.381 .      A
C244  C245  1.383 .      A
C245  C246  1.382 .      A
C246  C247  1.379 .      A
C247  N38   1.356 .      A
C248  C249  1.351 .      A
C248  C253  1.327 .      A
C249  C250  1.389 .      A
C250  C251  1.381 .      A
C251  C252  1.365 .      A
C252  C253  1.372 .      A
C254  N39   1.409 1_455  A
C254  N40   1.392 .      A
N39   C254  1.409 1_655  A
N39   C255  1.351 .      A
C255  C256  1.369 .      A
C255  C260  1.386 1_655  A
C256  C257  1.383 .      A
C257  C258  1.386 1_655  A
C258  C257  1.386 1_455  A
C258  C259  1.382 .      A
C259  C260  1.373 .      A
C260  C255  1.386 1_455  A
C260  N40   1.350 .      A
C261  C262  1.381 .      A
C261  C266  1.391 .      A
C262  C263  1.371 .      A
C263  C264  1.369 .      A
C264  C265  1.379 .      A
C265  C266  1.379 .      A
C267  N41   1.411 .      A
C267  N42   1.419 .      A
N41   C268  1.350 .      A
C268  C269  1.378 .      A
C268  C273  1.381 .      A
C269  C270  1.382 .      A
C270  C271  1.383 .      A
C271  C272  1.382 .      A
C272  C273  1.370 .      A
C273  N42   1.349 .      A
C274  C275  1.348 .      A
C274  C279  1.348 .      A
C275  C276  1.362 .      A
C276  C277  1.340 .      A
C277  C278  1.357 .      A
C278  C279  1.351 .      A
C280  N43   1.388 .      A
C280  N44   1.404 .      A
N43   C281  1.348 .      A
C281  C282  1.375 .      A
C281  C286  1.370 .      A
C282  C283  1.381 .      A
C283  C284  1.385 .      A
C284  C285  1.382 .      A
C285  C286  1.364 .      A
C286  N44   1.348 .      A
C287  C288  1.391 .      A
C287  C292  1.341 .      A
C288  C289  1.372 .      A
C289  C290  1.363 .      A
C290  C291  1.371 .      A
C291  C292  1.397 .      A
C293  N45   1.395 .      A
C293  N46   1.408 .      A
N45   C294  1.358 .      A
C294  C295  1.364 .      A
C294  C299  1.384 .      A
C295  C296  1.384 .      A
C296  C297  1.385 .      A
C297  C298  1.383 .      A
C298  C299  1.374 .      A
C299  N46   1.341 .      A
C300  C301  1.369 .      A
C300  C305  1.373 .      A
C301  C302  1.350 .      A
C302  C303  1.362 .      A
C303  C304  1.374 .      A
C304  C305  1.382 .      A
C306  N47   1.408 .      A
C306  N48   1.412 1_545  A
N47   C307  1.351 .      A
C307  C308  1.370 .      A
C307  C312  1.378 1_545  A
C308  C309  1.384 1_545  A
C309  C308  1.384 1_565  A
C309  C310  1.381 .      A
C310  C311  1.378 .      A
C311  C312  1.370 .      A
C312  C307  1.378 1_565  A
C312  N48   1.358 .      A
N48   C306  1.412 1_565  A
C313  C314  1.375 .      A
C313  C318  1.419 .      A
C314  C315  1.347 .      A
C315  C316  1.347 .      A
C316  C317  1.375 .      A
C317  C318  1.377 .      A
C319  N49   1.409 .      A
C319  N50   1.432 .      A
N49   C320  1.318 .      A
C320  C321  1.370 .      A
C320  C325  1.350 .      A
C321  C322  1.368 .      A
C322  C323  1.373 .      A
C323  C324  1.386 .      A
C324  C325  1.352 .      A
C325  N50   1.362 .      A
C326  C327  1.373 .      A
C326  C331  1.358 .      A
C327  C328  1.370 .      A
C328  C329  1.352 .      A
C329  C330  1.369 .      A
C330  C331  1.369 .      A
C332  N51   1.426 .      A
C332  N52   1.404 .      A
N51   C333  1.342 .      A
C333  C334  1.348 .      A
C333  C338  1.382 .      A
C334  C335  1.377 .      A
C335  C336  1.376 .      A
C336  C337  1.378 .      A
C337  C338  1.370 .      A
C338  N52   1.346 .      A
C339  C340  1.350 .      A
C339  C344  1.353 .      A
C340  C341  1.379 .      A
C341  C342  1.364 .      A
C342  C343  1.372 .      A
C343  C344  1.379 .      A
C345  N53   1.395 .      A
C345  N54   1.374 .      A
N53   C346  1.347 .      A
C346  C347  1.360 .      A
C346  C351  1.362 .      A
C347  C348  1.382 .      A
C348  C349  1.385 .      A
C349  C350  1.378 .      A
C350  C351  1.370 .      A
C351  N54   1.339 .      A
C352  C353  1.361 .      A
C352  C357  1.364 .      A
C353  C354  1.370 .      A
C354  C355  1.378 .      A
C355  C356  1.357 .      A
C356  C357  1.359 .      A
C358  N55   1.413 .      A
C358  N56   1.411 1_545  A
N55   C359  1.358 .      A
C359  C360  1.366 .      A
C359  C364  1.381 1_545  A
C360  C361  1.383 1_554  A
C361  C360  1.383 1_556  A
C361  C362  1.384 1_545  A
C362  C361  1.384 1_565  A
C362  C363  1.381 1_556  A
C363  C362  1.381 1_554  A
C363  C364  1.376 .      A
C364  C359  1.381 1_565  A
C364  N56   1.352 .      A
N56   C358  1.411 1_565  A
C365  C366  1.372 1_554  A
C365  C370  1.359 .      A
C366  C365  1.372 1_556  A
C366  C367  1.360 .      A
C367  C368  1.369 .      A
C368  C369  1.374 .      A
C369  C370  1.362 1_556  A
C370  C369  1.362 1_554  A
C371  N57   1.400 .      A
C371  N58   1.391 .      A
N57   C372  1.355 .      A
C372  C373  1.355 .      A
C372  C377  1.362 .      A
C373  C374  1.386 .      A
C374  C375  1.383 .      A
C375  C376  1.380 .      A
C376  C377  1.369 .      A
C377  N58   1.332 .      A
C378  C379  1.360 .      A
C378  C383  1.351 .      A
C379  C380  1.374 .      A
C380  C381  1.359 .      A
C381  C382  1.367 .      A
C382  C383  1.360 .      A
C384  N59   1.407 .      A
C384  N60   1.409 .      A
N59   C385  1.346 1_554  A
C385  N59   1.346 1_556  A
C385  C386  1.368 .      A
C385  C390  1.388 1_556  A
C386  C387  1.377 .      A
C387  C388  1.379 .      A
C388  C389  1.381 .      A
C389  C390  1.390 1_556  A
C390  C385  1.388 1_554  A
C390  C389  1.390 1_554  A
C390  N60   1.376 .      A
C391  C392  1.358 .      A
C391  C396  1.403 .      A
C392  C393  1.323 .      A
C393  C394  1.336 1_556  A
C394  C393  1.336 1_554  A
C394  C395  1.382 1_554  A
C395  C394  1.382 1_556  A
C395  C396  1.372 .      A
C397  N61   1.438 .      A
C397  N62   1.424 .      A
N61   C398  1.365 .      A
C398  C399  1.371 .      A
C398  C403  1.373 .      A
C399  C400  1.385 .      A
C400  C401  1.382 .      A
C401  C402  1.378 .      A
C402  C403  1.371 .      A
C403  N62   1.337 .      A
C404  C405  1.380 .      A
C404  C409  1.336 .      A
C405  C406  1.379 .      A
C406  C407  1.379 .      A
C407  C408  1.380 .      A
C408  C409  1.378 .      A
C410  N63   1.405 .      A
C410  N64   1.399 .      A
N63   C411  1.350 .      A
C411  C412  1.374 .      A
C411  C416  1.374 .      A
C412  C413  1.375 .      A
C413  C414  1.375 .      A
C414  C415  1.379 .      A
C415  C416  1.381 .      A
C416  N64   1.369 .      A
