data_str_m1_o12004_CON
_audit_creation_date              2015-10-01T06:29:44-0700
_symmetry_space_group_name_H-M    P1
_symmetry_Int_Tables_number       1
_space_group_crystal_system       triclinic
loop_
_symmetry_equiv_pos_as_xyz
  x,y,z
_cell_length_a                    24.8267130
_cell_length_b                    27.6690574
_cell_length_c                    27.5531818
_cell_angle_alpha                 118.762014
_cell_angle_beta                  75.0892877
_cell_angle_gamma                 91.7367619
_cell_volume                      15935.3728557

loop_
_atom_site_label
_atom_site_type_symbol
_atom_site_description
_atom_site_fract_x
_atom_site_fract_y
_atom_site_fract_z
_atom_type_partial_charge
Zn1   Zn    Zn3+2 0.117275 0.381546 0.629368 0.000000
Zn2   Zn    Zn3+2 0.139151 0.592710 0.528808 0.000000
Zn3   Zn    Zn3+2 0.146734 0.813793 0.519031 0.000000
Zn4   Zn    Zn3+2 0.110355 0.150164 0.627515 0.000000
Zn5   Zn    Zn3+2 0.124248 0.788915 0.949511 0.000000
Zn6   Zn    Zn3+2 0.983971 0.627537 0.778085 0.000000
Zn7   Zn    Zn3+2 0.492505 0.814915 0.955893 0.000000
Zn8   Zn    Zn3+2 0.388685 0.037800 0.779400 0.000000
Zn9   Zn    Zn3+2 0.361040 0.635334 0.800123 0.000000
Zn10  Zn    Zn3+2 0.741123 0.178922 0.214257 0.000000
Zn11  Zn    Zn3+2 0.007467 0.164029 0.198880 0.000000
Zn12  Zn    Zn3+2 0.735005 0.939660 0.210430 0.000000
Zn13  Zn    Zn3+2 0.515927 0.351598 0.392161 0.000000
Zn14  Zn    Zn3+2 0.771814 0.029155 0.944682 0.000000
Zn15  Zn    Zn3+2 0.988436 0.943184 0.218321 0.000000
Zn16  Zn    Zn3+2 0.504054 0.944710 0.387198 0.000000
Zn17  Zn    Zn3+2 0.149812 0.014491 0.921354 0.000000
Zn18  Zn    Zn3+2 0.748235 0.793309 0.942403 0.000000
Zn19  Zn    Zn3+2 0.523457 0.039254 0.943260 0.000000
Zn20  Zn    Zn3+2 0.143263 0.334774 0.364027 0.000000
Zn21  Zn    Zn3+2 0.386956 0.183073 0.214490 0.000000
Zn22  Zn    Zn3+2 0.004873 0.017758 0.761381 0.000000
Zn23  Zn    Zn3+2 0.390367 0.596473 0.543117 0.000000
Zn24  Zn    Zn3+2 0.374711 0.388021 0.646727 0.000000
Zn25  Zn    Zn3+2 0.372471 0.155137 0.629394 0.000000
Zn26  Zn    Zn3+2 0.407803 0.824666 0.537565 0.000000
Zn27  Zn    Zn3+2 0.116626 0.937661 0.380990 0.000000
Zn28  Zn    Zn3+2 0.361324 0.948549 0.228545 0.000000
C1    C     C_3   0.148596 0.163581 0.460505 0.000000
N1    N     N_3   0.139403 0.180031 0.520598 0.000000
C2    C     C_3   0.117899 0.237762 0.552395 0.000000
C3    C     C_R   0.101205 0.261513 0.615602 0.000000
N2    N     N_R   0.092167 0.232703 0.646346 0.000000
C4    C     C_R   0.076216 0.274925 0.701275 0.000000
C5    C     C_R   0.063016 0.271791 0.751163 0.000000
C6    C     C_R   0.050484 0.320931 0.803115 0.000000
C7    C     C_R   0.053567 0.371787 0.804473 0.000000
C8    C     C_R   0.068388 0.374267 0.753833 0.000000
C9    C     C_R   0.078134 0.325194 0.702898 0.000000
N3    N     N_R   0.094866 0.318338 0.649336 0.000000
H1    H     H_    0.167323 0.120412 0.434488 0.000000
H2    H     H_    0.108488 0.165407 0.451591 0.000000
H3    H     H_    0.174976 0.191547 0.449469 0.000000
H4    H     H_    0.177126 0.172567 0.526570 0.000000
H5    H     H_    0.150878 0.260284 0.542625 0.000000
H6    H     H_    0.081859 0.244885 0.538972 0.000000
H7    H     H_    0.062807 0.232638 0.750531 0.000000
H8    H     H_    0.039634 0.319667 0.843047 0.000000
H9    H     H_    0.045056 0.409671 0.845400 0.000000
H10   H     H_    0.072404 0.413557 0.754642 0.000000
C10   C     C_3   0.026588 0.604589 0.419662 0.000000
N4    N     N_3   0.074598 0.616941 0.443132 0.000000
C11   C     C_3   0.065139 0.674797 0.488028 0.000000
C12   C     C_R   0.117611 0.691826 0.506136 0.000000
N5    N     N_R   0.150866 0.648375 0.497802 0.000000
C13   C     C_R   0.199675 0.650457 0.463755 0.000000
C14   C     C_R   0.245822 0.611822 0.433694 0.000000
C15   C     C_R   0.288562 0.619732 0.395968 0.000000
C16   C     C_R   0.287405 0.668395 0.393399 0.000000
C17   C     C_R   0.242720 0.709044 0.427800 0.000000
C18   C     C_R   0.198259 0.697851 0.460746 0.000000
N6    N     N_R   0.148173 0.728149 0.491349 0.000000
H11   H     H_    0.029590 0.559282 0.390304 0.000000
H12   H     H_    0.987127 0.617696 0.454980 0.000000
H13   H     H_    0.026336 0.626404 0.394865 0.000000
H14   H     H_    0.108985 0.612626 0.409604 0.000000
H15   H     H_    0.054930 0.698899 0.468955 0.000000
H16   H     H_    0.030239 0.679904 0.525128 0.000000
H17   H     H_    0.248861 0.575488 0.437469 0.000000
H18   H     H_    0.322685 0.587354 0.368055 0.000000
H19   H     H_    0.321208 0.674169 0.363843 0.000000
H20   H     H_    0.242015 0.746854 0.426338 0.000000
C19   C     C_3   0.278018 0.866702 0.915140 0.000000
N7    N     N_3   0.260848 0.822626 0.928295 0.000000
C20   C     C_3   0.276273 0.770421 0.874649 0.000000
C21   C     C_R   0.248283 0.723984 0.877922 0.000000
N8    N     N_R   0.281006 0.675316 0.859369 0.000000
C22   C     C_R   0.253836 0.659427 0.897540 0.000000
C23   C     C_R   0.275043 0.621452 0.908424 0.000000
C24   C     C_R   0.246020 0.618043 0.956490 0.000000
C25   C     C_R   0.199390 0.655366 0.995042 0.000000
C26   C     C_R   0.180454 0.695298 0.985007 0.000000
C27   C     C_R   0.206039 0.694556 0.933989 0.000000
N9    N     N_R   0.198730 0.734032 0.919947 0.000000
H21   H     H_    0.253015 0.906294 0.949590 0.000000
H22   H     H_    0.323385 0.869306 0.911124 0.000000
H23   H     H_    0.270244 0.859664 0.874724 0.000000
H24   H     H_    0.218076 0.829809 0.946933 0.000000
H25   H     H_    0.267696 0.773554 0.839338 0.000000
H26   H     H_    0.320655 0.759843 0.867625 0.000000
H27   H     H_    0.314937 0.597191 0.882517 0.000000
H28   H     H_    0.262004 0.588720 0.966144 0.000000
H29   H     H_    0.179628 0.655301 0.034844 0.000000
H30   H     H_    0.150015 0.728852 0.019142 0.000000
C28   C     C_3   0.972707 0.824841 0.852225 0.000000
N10   N     N_3   0.979504 0.780123 0.863450 0.000000
C29   C     C_3   0.038823 0.763288 0.845593 0.000000
C30   C     C_R   0.045954 0.723311 0.864393 0.000000
N11   N     N_R   0.068877 0.735240 0.909125 0.000000
C31   C     C_R   0.055581 0.692513 0.918847 0.000000
C32   C     C_R   0.062572 0.685637 0.962714 0.000000
C33   C     C_R   0.049754 0.636740 0.962864 0.000000
C34   C     C_R   0.028068 0.596796 0.920387 0.000000
C35   C     C_R   0.015801 0.607042 0.879715 0.000000
C36   C     C_R   0.029279 0.655984 0.880503 0.000000
N12   N     N_R   0.021631 0.674272 0.845113 0.000000
H31   H     H_    0.928915 0.830808 0.851880 0.000000
H32   H     H_    0.982954 0.861373 0.887261 0.000000
H33   H     H_    0.002336 0.816899 0.810998 0.000000
H34   H     H_    0.960197 0.746996 0.839122 0.000000
H35   H     H_    0.055741 0.743582 0.798098 0.000000
H36   H     H_    0.059747 0.800106 0.867724 0.000000
H37   H     H_    0.073848 0.719120 0.998017 0.000000
H38   H     H_    0.055378 0.630219 0.996985 0.000000
H39   H     H_    0.017436 0.558978 0.921209 0.000000
H40   H     H_    0.994496 0.578079 0.850201 0.000000
C37   C     C_3   0.153656 0.621328 0.767232 0.000000
N13   N     N_3   0.100528 0.597815 0.766618 0.000000
C38   C     C_3   0.109641 0.540997 0.722337 0.000000
C39   C     C_R   0.057696 0.513006 0.719711 0.000000
N14   N     N_R   0.005094 0.542839 0.747510 0.000000
C40   C     C_R   0.971300 0.502264 0.738211 0.000000
C41   C     C_R   0.913839 0.508337 0.756073 0.000000
C42   C     C_R   0.887136 0.460599 0.739944 0.000000
C43   C     C_R   0.917956 0.408571 0.705944 0.000000
C44   C     C_R   0.975961 0.403280 0.686993 0.000000
C45   C     C_R   0.001980 0.450905 0.703922 0.000000
N15   N     N_R   0.057555 0.455360 0.688809 0.000000
H41   H     H_    0.158891 0.644253 0.742948 0.000000
H42   H     H_    0.189091 0.589016 0.747444 0.000000
H43   H     H_    0.153825 0.650046 0.812278 0.000000
H44   H     H_    0.081152 0.617282 0.750471 0.000000
H45   H     H_    0.122420 0.544844 0.683813 0.000000
H46   H     H_    0.139310 0.517690 0.729423 0.000000
H47   H     H_    0.890224 0.548855 0.782393 0.000000
H48   H     H_    0.841885 0.463782 0.753692 0.000000
H49   H     H_    0.896319 0.371779 0.693406 0.000000
H50   H     H_    0.999461 0.362913 0.659209 0.000000
C46   C     C_3   0.960466 0.522238 0.604483 0.000000
N16   N     N_3   0.998953 0.521132 0.635658 0.000000
C47   C     C_3   0.053412 0.534567 0.613096 0.000000
C48   C     C_R   0.056432 0.595550 0.644583 0.000000
N17   N     N_R   0.019167 0.629512 0.698897 0.000000
C49   C     C_R   0.009313 0.674723 0.695440 0.000000
C50   C     C_R   0.965358 0.715288 0.730087 0.000000
C51   C     C_R   0.961062 0.758607 0.720017 0.000000
C52   C     C_R   0.002006 0.761230 0.677422 0.000000
C53   C     C_R   0.042689 0.717185 0.638774 0.000000
C54   C     C_R   0.043845 0.671924 0.646520 0.000000
N18   N     N_R   0.075808 0.622006 0.612384 0.000000
H51   H     H_    0.973499 0.487476 0.560197 0.000000
H52   H     H_    0.918240 0.515430 0.624438 0.000000
H53   H     H_    0.958448 0.562616 0.605327 0.000000
H54   H     H_    0.004611 0.479911 0.625415 0.000000
H55   H     H_    0.086815 0.510442 0.614156 0.000000
H56   H     H_    0.059698 0.521407 0.567539 0.000000
H57   H     H_    0.933618 0.713169 0.763103 0.000000
H58   H     H_    0.927713 0.792144 0.747564 0.000000
H59   H     H_    0.001678 0.798742 0.675496 0.000000
H60   H     H_    0.073961 0.720830 0.606644 0.000000
C55   C     C_3   0.343667 0.734050 0.027039 0.000000
N19   N     N_3   0.390098 0.738954 0.985997 0.000000
C56   C     C_3   0.368950 0.739681 0.941953 0.000000
C57   C     C_R   0.416736 0.725275 0.890748 0.000000
N20   N     N_R   0.468542 0.742514 0.895842 0.000000
C58   C     C_R   0.503463 0.701422 0.846500 0.000000
C59   C     C_R   0.561187 0.691096 0.829082 0.000000
C60   C     C_R   0.587244 0.645918 0.776948 0.000000
C61   C     C_R   0.556164 0.611599 0.741924 0.000000
C62   C     C_R   0.498542 0.622760 0.758764 0.000000
C63   C     C_R   0.473492 0.666754 0.811773 0.000000
N21   N     N_R   0.418542 0.679703 0.838406 0.000000
H61   H     H_    0.331258 0.691401 0.007693 0.000000
H62   H     H_    0.357569 0.742156 0.065071 0.000000
H63   H     H_    0.307655 0.764346 0.040011 0.000000
H64   H     H_    0.416824 0.702300 0.966084 0.000000
H65   H     H_    0.340572 0.707535 0.929767 0.000000
H66   H     H_    0.345875 0.780074 0.957716 0.000000
H67   H     H_    0.587376 0.713842 0.854784 0.000000
H68   H     H_    0.632260 0.636611 0.764141 0.000000
H69   H     H_    0.577571 0.575089 0.702784 0.000000
H70   H     H_    0.473442 0.595206 0.733388 0.000000
C64   C     C_3   0.851503 0.311777 0.329082 0.000000
N22   N     N_3   0.883030 0.263618 0.320768 0.000000
C65   C     C_3   0.852628 0.215302 0.298105 0.000000
C66   C     C_R   0.867698 0.187020 0.234066 0.000000
N23   N     N_R   0.922766 0.183838 0.201977 0.000000
C67   C     C_R   0.913651 0.201893 0.166968 0.000000
C68   C     C_R   0.952710 0.219173 0.134885 0.000000
C69   C     C_R   0.933997 0.250897 0.114926 0.000000
C70   C     C_R   0.877429 0.268842 0.131932 0.000000
C71   C     C_R   0.839327 0.251440 0.165030 0.000000
C72   C     C_R   0.857635 0.212973 0.176412 0.000000
N24   N     N_R   0.826951 0.196768 0.212875 0.000000
H71   H     H_    0.876873 0.347274 0.342067 0.000000
H72   H     H_    0.842397 0.303581 0.288714 0.000000
H73   H     H_    0.811847 0.323144 0.363904 0.000000
H74   H     H_    0.883304 0.272247 0.361980 0.000000
H75   H     H_    0.858668 0.186750 0.313581 0.000000
H76   H     H_    0.807648 0.230088 0.314201 0.000000
H77   H     H_    0.996894 0.212807 0.129995 0.000000
H78   H     H_    0.963927 0.266278 0.090969 0.000000
H79   H     H_    0.863497 0.298912 0.122090 0.000000
H80   H     H_    0.798089 0.272557 0.187829 0.000000
C73   C     C_3   0.814939 0.103249 0.340751 0.000000
N25   N     N_3   0.775586 0.080695 0.307022 0.000000
C74   C     C_3   0.797427 0.081425 0.253455 0.000000
C75   C     C_R   0.753917 0.065119 0.222828 0.000000
N26   N     N_R   0.723842 0.021495 0.222064 0.000000
C76   C     C_R   0.671858 0.042439 0.233264 0.000000
C77   C     C_R   0.624390 0.021782 0.249269 0.000000
C78   C     C_R   0.574405 0.051298 0.265433 0.000000
C79   C     C_R   0.572978 0.097650 0.259879 0.000000
C80   C     C_R   0.621345 0.119989 0.245103 0.000000
C81   C     C_R   0.671150 0.091630 0.233185 0.000000
N27   N     N_R   0.723292 0.106750 0.223663 0.000000
H81   H     H_    0.798448 0.145952 0.376055 0.000000
H82   H     H_    0.821907 0.076500 0.358698 0.000000
H83   H     H_    0.855139 0.103778 0.312620 0.000000
H84   H     H_    0.738041 0.106781 0.329636 0.000000
H85   H     H_    0.804598 0.123570 0.262472 0.000000
H86   H     H_    0.836949 0.054971 0.229329 0.000000
H87   H     H_    0.625016 0.983215 0.247792 0.000000
H88   H     H_    0.535907 0.035482 0.277052 0.000000
H89   H     H_    0.532303 0.113476 0.265999 0.000000
H90   H     H_    0.620098 0.156995 0.241521 0.000000
C82   C     C_3   0.602432 0.263568 0.168555 0.000000
N28   N     N_3   0.606715 0.251704 0.213411 0.000000
C83   C     C_3   0.623625 0.299672 0.257713 0.000000
C84   C     C_R   0.635123 0.285529 0.299238 0.000000
N29   N     N_R   0.600847 0.310764 0.355648 0.000000
C85   C     C_R   0.625715 0.287588 0.378619 0.000000
C86   C     C_R   0.607098 0.293635 0.432535 0.000000
C87   C     C_R   0.636423 0.263396 0.447211 0.000000
C88   C     C_R   0.681853 0.225458 0.406677 0.000000
C89   C     C_R   0.698364 0.217697 0.351293 0.000000
C90   C     C_R   0.670493 0.249836 0.338231 0.000000
N30   N     N_R   0.678293 0.245889 0.286009 0.000000
H91   H     H_    0.559734 0.260169 0.164632 0.000000
H92   H     H_    0.614183 0.305402 0.177471 0.000000
H93   H     H_    0.628576 0.231344 0.126699 0.000000
H94   H     H_    0.638518 0.219467 0.195540 0.000000
H95   H     H_    0.660643 0.315542 0.240841 0.000000
H96   H     H_    0.589720 0.333784 0.281446 0.000000
H97   H     H_    0.570424 0.320779 0.462195 0.000000
H98   H     H_    0.623366 0.268653 0.490159 0.000000
H99   H     H_    0.703697 0.201086 0.418208 0.000000
H100  H     H_    0.731950 0.187045 0.319316 0.000000
C91   C     C_3   0.858862 0.114788 0.052585 0.000000
N31   N     N_3   0.842491 0.082671 0.082855 0.000000
C92   C     C_3   0.786522 0.064120 0.083652 0.000000
C93   C     C_R   0.750837 0.102810 0.082075 0.000000
N32   N     N_R   0.736947 0.156131 0.128248 0.000000
C94   C     C_R   0.734651 0.185276 0.100435 0.000000
C95   C     C_R   0.732385 0.241451 0.121467 0.000000
C96   C     C_R   0.740524 0.262054 0.083539 0.000000
C97   C     C_R   0.753485 0.226455 0.024658 0.000000
C98   C     C_R   0.757646 0.169832 0.003320 0.000000
C99   C     C_R   0.746302 0.150516 0.041988 0.000000
N33   N     N_R   0.754137 0.097425 0.028953 0.000000
H101  H     H_    0.901695 0.125682 0.051266 0.000000
H102  H     H_    0.856644 0.091493 0.007725 0.000000
H103  H     H_    0.836421 0.156169 0.075599 0.000000
H104  H     H_    0.845005 0.105090 0.124903 0.000000
H105  H     H_    0.787204 0.023751 0.046417 0.000000
H106  H     H_    0.768794 0.060185 0.121977 0.000000
H107  H     H_    0.723681 0.269249 0.166330 0.000000
H108  H     H_    0.738006 0.306368 0.100004 0.000000
H109  H     H_    0.761315 0.243025 0.995387 0.000000
H110  H     H_    0.769951 0.141589 0.957529 0.000000
C100  C     C_3   0.961036 0.034156 0.024171 0.000000
N34   N     N_3   0.973229 0.084877 0.067096 0.000000
C101  C     C_3   0.018686 0.099535 0.035110 0.000000
C102  C     C_R   0.066780 0.097289 0.054200 0.000000
N35   N     N_R   0.066889 0.126990 0.111983 0.000000
C103  C     C_R   0.122170 0.122077 0.105526 0.000000
C104  C     C_R   0.149076 0.150271 0.146574 0.000000
C105  C     C_R   0.206350 0.141055 0.130228 0.000000
C106  C     C_R   0.235575 0.101709 0.074723 0.000000
C107  C     C_R   0.207960 0.074932 0.033183 0.000000
C108  C     C_R   0.151463 0.087385 0.049238 0.000000
N36   N     N_R   0.117845 0.069845 0.014370 0.000000
H111  H     H_    0.947288 0.041385 0.993206 0.000000
H112  H     H_    0.998089 0.003217 0.001369 0.000000
H113  H     H_    0.927095 0.020532 0.046338 0.000000
H114  H     H_    0.988273 0.075359 0.093682 0.000000
H115  H     H_    0.028947 0.069732 0.988765 0.000000
H116  H     H_    0.008869 0.140659 0.040851 0.000000
H117  H     H_    0.127129 0.179469 0.189874 0.000000
H118  H     H_    0.227476 0.165153 0.161800 0.000000
H119  H     H_    0.280066 0.092184 0.063421 0.000000
H120  H     H_    0.229660 0.046374 0.989425 0.000000
C109  C     C_3   0.060217 0.217574 0.412126 0.000000
N37   N     N_3   0.047970 0.246622 0.383897 0.000000
C110  C     C_3   0.075876 0.213660 0.322843 0.000000
C111  C     C_R   0.069407 0.247079 0.295731 0.000000
N38   N     N_R   0.037180 0.235515 0.257683 0.000000
C112  C     C_R   0.033082 0.284480 0.258476 0.000000
C113  C     C_R   0.994830 0.303220 0.241776 0.000000
C114  C     C_R   0.996751 0.355310 0.246861 0.000000
C115  C     C_R   0.035716 0.388772 0.270611 0.000000
C116  C     C_R   0.069526 0.371982 0.293628 0.000000
C117  C     C_R   0.065487 0.320309 0.289414 0.000000
N39   N     N_R   0.087888 0.298666 0.315457 0.000000
H121  H     H_    0.059186 0.172516 0.385119 0.000000
H122  H     H_    0.102530 0.225547 0.418376 0.000000
H123  H     H_    0.028747 0.232965 0.454470 0.000000
H124  H     H_    0.004855 0.251164 0.390420 0.000000
H125  H     H_    0.120012 0.205354 0.318540 0.000000
H126  H     H_    0.059338 0.173557 0.302806 0.000000
H127  H     H_    0.959682 0.281588 0.232585 0.000000
H128  H     H_    0.966589 0.370601 0.233930 0.000000
H129  H     H_    0.037125 0.429608 0.274669 0.000000
H130  H     H_    0.096855 0.400053 0.315291 0.000000
C118  C     C_3   0.164741 0.010551 0.112631 0.000000
N40   N     N_3   0.120063 0.037514 0.165759 0.000000
C119  C     C_3   0.067891 0.022959 0.151040 0.000000
C120  C     C_R   0.021544 0.051443 0.203615 0.000000
N41   N     N_R   0.998984 0.028332 0.238319 0.000000
C121  C     C_R   0.970190 0.073875 0.286964 0.000000
C122  C     C_R   0.945832 0.080041 0.340243 0.000000
C123  C     C_R   0.920026 0.131510 0.385016 0.000000
C124  C     C_R   0.923811 0.177285 0.377249 0.000000
C125  C     C_R   0.951794 0.170981 0.324042 0.000000
C126  C     C_R   0.972441 0.119075 0.279585 0.000000
N42   N     N_R   0.003048 0.106389 0.226615 0.000000
H131  H     H_    0.202760 0.031749 0.118824 0.000000
H132  H     H_    0.172221 0.966135 0.098996 0.000000
H133  H     H_    0.153160 0.012627 0.077941 0.000000
H134  H     H_    0.120005 0.080285 0.183937 0.000000
H135  H     H_    0.062751 0.034968 0.119502 0.000000
H136  H     H_    0.067868 0.978589 0.134082 0.000000
H137  H     H_    0.952048 0.048182 0.349085 0.000000
H138  H     H_    0.900339 0.136637 0.427307 0.000000
H139  H     H_    0.906493 0.217970 0.413069 0.000000
H140  H     H_    0.958946 0.206051 0.317541 0.000000
C127  C     C_3   0.639560 0.987964 0.113130 0.000000
N43   N     N_3   0.661525 0.943655 0.118194 0.000000
C128  C     C_3   0.711281 0.917050 0.070815 0.000000
C129  C     C_R   0.734216 0.871062 0.074450 0.000000
N44   N     N_R   0.737889 0.875626 0.125815 0.000000
C130  C     C_R   0.750522 0.822310 0.110302 0.000000
C131  C     C_R   0.754299 0.802141 0.146208 0.000000
C132  C     C_R   0.758424 0.745286 0.123936 0.000000
C133  C     C_R   0.759057 0.710347 0.066902 0.000000
C134  C     C_R   0.757714 0.731522 0.030675 0.000000
C135  C     C_R   0.753224 0.788048 0.053453 0.000000
N45   N     N_R   0.744924 0.817864 0.028454 0.000000
H141  H     H_    0.609601 0.016315 0.153454 0.000000
H142  H     H_    0.673849 0.011451 0.104185 0.000000
H143  H     H_    0.616252 0.970689 0.080577 0.000000
H144  H     H_    0.632263 0.914869 0.110774 0.000000
H145  H     H_    0.698772 0.899741 0.030648 0.000000
H146  H     H_    0.742781 0.946427 0.071706 0.000000
H147  H     H_    0.750753 0.829812 0.191183 0.000000
H148  H     H_    0.760129 0.727968 0.151353 0.000000
H149  H     H_    0.762125 0.665975 0.050140 0.000000
H150  H     H_    0.760436 0.704059 0.986136 0.000000
C136  C     C_3   0.878246 0.834930 0.299760 0.000000
N46   N     N_3   0.891807 0.861236 0.264090 0.000000
C137  C     C_3   0.840267 0.888774 0.268774 0.000000
C138  C     C_R   0.853098 0.918174 0.234500 0.000000
N47   N     N_R   0.905981 0.931962 0.216417 0.000000
C139  C     C_R   0.896891 0.948659 0.181118 0.000000
C140  C     C_R   0.932010 0.973292 0.157011 0.000000
C141  C     C_R   0.911141 0.000072 0.134200 0.000000
C142  C     C_R   0.862231 0.986130 0.119218 0.000000
C143  C     C_R   0.828422 0.957126 0.140220 0.000000
C144  C     C_R   0.844628 0.945073 0.177109 0.000000
N48   N     N_R   0.813471 0.929951 0.213263 0.000000
H151  H     H_    0.917140 0.813224 0.296090 0.000000
H152  H     H_    0.859936 0.866671 0.345471 0.000000
H153  H     H_    0.848069 0.804336 0.285081 0.000000
H154  H     H_    0.907170 0.829781 0.221456 0.000000
H155  H     H_    0.811890 0.857205 0.251176 0.000000
H156  H     H_    0.818799 0.918559 0.314388 0.000000
H157  H     H_    0.974463 0.970459 0.155044 0.000000
H158  H     H_    0.934402 0.029637 0.126230 0.000000
H159  H     H_    0.848289 0.000563 0.094783 0.000000
H160  H     H_    0.788201 0.952114 0.133468 0.000000
C145  C     C_3   0.615589 0.819428 0.144931 0.000000
N49   N     N_3   0.638112 0.863017 0.187514 0.000000
C146  C     C_3   0.600874 0.876681 0.242720 0.000000
C147  C     C_R   0.622320 0.918785 0.288872 0.000000
N50   N     N_R   0.674621 0.937120 0.278898 0.000000
C148  C     C_R   0.673630 0.977445 0.331944 0.000000
C149  C     C_R   0.716641 0.007483 0.348477 0.000000
C150  C     C_R   0.705473 0.051363 0.404047 0.000000
C151  C     C_R   0.651043 0.067313 0.439029 0.000000
C152  C     C_R   0.608509 0.036327 0.420928 0.000000
C153  C     C_R   0.621947 0.987491 0.369537 0.000000
N51   N     N_R   0.588106 0.949217 0.344765 0.000000
H161  H     H_    0.636884 0.813550 0.101617 0.000000
H162  H     H_    0.621068 0.780164 0.145647 0.000000
H163  H     H_    0.571005 0.832669 0.154963 0.000000
H164  H     H_    0.633555 0.897248 0.182404 0.000000
H165  H     H_    0.560622 0.895625 0.246447 0.000000
H166  H     H_    0.597869 0.839005 0.247153 0.000000
H167  H     H_    0.758286 0.996099 0.319691 0.000000
H168  H     H_    0.738409 0.075270 0.419516 0.000000
H169  H     H_    0.641782 0.104322 0.480655 0.000000
H170  H     H_    0.566292 0.052386 0.445963 0.000000
C154  C     C_3   0.516324 0.200070 0.377192 0.000000
N52   N     N_3   0.516789 0.229738 0.345377 0.000000
C155  C     C_3   0.480554 0.208663 0.307067 0.000000
C156  C     C_R   0.463245 0.252676 0.297687 0.000000
N53   N     N_R   0.481970 0.304663 0.321341 0.000000
C157  C     C_R   0.476495 0.321772 0.284371 0.000000
C158  C     C_R   0.495296 0.367888 0.281638 0.000000
C159  C     C_R   0.490432 0.374614 0.236315 0.000000
C160  C     C_R   0.471693 0.333170 0.192318 0.000000
C161  C     C_R   0.455647 0.285876 0.194711 0.000000
C162  C     C_R   0.453751 0.283238 0.243375 0.000000
N54   N     N_R   0.441239 0.240124 0.252665 0.000000
H171  H     H_    0.559626 0.182676 0.368095 0.000000
H172  H     H_    0.501977 0.229008 0.424103 0.000000
H173  H     H_    0.489112 0.166508 0.365596 0.000000
H174  H     H_    0.556980 0.221538 0.318321 0.000000
H175  H     H_    0.505159 0.178914 0.263141 0.000000
H176  H     H_    0.443934 0.190786 0.321998 0.000000
H177  H     H_    0.514818 0.397592 0.312903 0.000000
H178  H     H_    0.505024 0.410451 0.233117 0.000000
H179  H     H_    0.473263 0.336113 0.154269 0.000000
H180  H     H_    0.452072 0.249322 0.156531 0.000000
C163  C     C_3   0.352830 0.386915 0.365707 0.000000
N55   N     N_3   0.384202 0.407388 0.408179 0.000000
C164  C     C_3   0.408920 0.456274 0.410887 0.000000
C165  C     C_R   0.450248 0.470887 0.445068 0.000000
N56   N     N_R   0.452075 0.525968 0.484190 0.000000
C166  C     C_R   0.507692 0.526932 0.479004 0.000000
C167  C     C_R   0.536322 0.572512 0.499056 0.000000
C168  C     C_R   0.594085 0.563851 0.486828 0.000000
C169  C     C_R   0.621931 0.510384 0.455305 0.000000
C170  C     C_R   0.592669 0.464812 0.433606 0.000000
C171  C     C_R   0.535808 0.474594 0.444730 0.000000
N57   N     N_R   0.500600 0.437330 0.423388 0.000000
H181  H     H_    0.308261 0.400956 0.389203 0.000000
H182  H     H_    0.366093 0.402471 0.334733 0.000000
H183  H     H_    0.358567 0.341030 0.341683 0.000000
H184  H     H_    0.415407 0.377707 0.398200 0.000000
H185  H     H_    0.430844 0.450053 0.367904 0.000000
H186  H     H_    0.375948 0.490823 0.429007 0.000000
H187  H     H_    0.514936 0.613712 0.522355 0.000000
H188  H     H_    0.617718 0.599035 0.502259 0.000000
H189  H     H_    0.666940 0.504446 0.446560 0.000000
H190  H     H_    0.614165 0.423315 0.407107 0.000000
C172  C     C_3   0.596578 0.403621 0.578992 0.000000
N58   N     N_3   0.539196 0.390679 0.580118 0.000000
C173  C     C_3   0.515192 0.416291 0.553802 0.000000
C174  C     C_R   0.470613 0.384068 0.530839 0.000000
N59   N     N_R   0.427129 0.372760 0.565922 0.000000
C175  C     C_R   0.408277 0.331890 0.526514 0.000000
C176  C     C_R   0.376278 0.296308 0.535861 0.000000
C177  C     C_R   0.364757 0.252312 0.490315 0.000000
C178  C     C_R   0.382597 0.248325 0.437089 0.000000
C179  C     C_R   0.410880 0.288728 0.430640 0.000000
C180  C     C_R   0.430972 0.324493 0.473673 0.000000
N60   N     N_R   0.472735 0.355515 0.472244 0.000000
H191  H     H_    0.597151 0.448787 0.605652 0.000000
H192  H     H_    0.614891 0.382126 0.597131 0.000000
H193  H     H_    0.622449 0.389324 0.534246 0.000000
H194  H     H_    0.539837 0.347738 0.556594 0.000000
H195  H     H_    0.494782 0.457190 0.587745 0.000000
H196  H     H_    0.547484 0.418786 0.519106 0.000000
H197  H     H_    0.361735 0.302756 0.577870 0.000000
H198  H     H_    0.334841 0.226611 0.498238 0.000000
H199  H     H_    0.371755 0.215922 0.401664 0.000000
H200  H     H_    0.413409 0.294298 0.395342 0.000000
C181  C     C_3   0.584023 0.204971 0.024117 0.000000
N61   N     N_3   0.581615 0.148012 0.012724 0.000000
C182  C     C_3   0.638718 0.121936 0.993730 0.000000
C183  C     C_R   0.646381 0.061282 0.951296 0.000000
N62   N     N_R   0.609239 0.038191 0.919473 0.000000
C184  C     C_R   0.642585 0.998532 0.868734 0.000000
C185  C     C_R   0.634677 0.976886 0.814997 0.000000
C186  C     C_R   0.676304 0.938610 0.768126 0.000000
C187  C     C_R   0.725986 0.925060 0.775244 0.000000
C188  C     C_R   0.736286 0.953477 0.828448 0.000000
C189  C     C_R   0.694426 0.992078 0.873487 0.000000
N63   N     N_R   0.698809 0.030893 0.925200 0.000000
H201  H     H_    0.543100 0.229456 0.052889 0.000000
H202  H     H_    0.617524 0.223746 0.044933 0.000000
H203  H     H_    0.592516 0.205913 0.983087 0.000000
H204  H     H_    0.561575 0.129289 0.980588 0.000000
H205  H     H_    0.666417 0.141725 0.971787 0.000000
H206  H     H_    0.650391 0.128067 0.031697 0.000000
H207  H     H_    0.599979 0.993033 0.808435 0.000000
H208  H     H_    0.670906 0.920228 0.725373 0.000000
H209  H     H_    0.758249 0.895293 0.738372 0.000000
H210  H     H_    0.776554 0.946900 0.833766 0.000000
C190  C     C_3   0.607687 0.965228 0.977924 0.000000
N64   N     N_3   0.666511 0.970260 0.973912 0.000000
C191  C     C_3   0.692451 0.915200 0.933232 0.000000
C192  C     C_R   0.749654 0.908032 0.931969 0.000000
N65   N     N_R   0.784727 0.949449 0.941398 0.000000
C193  C     C_R   0.826545 0.926593 0.950224 0.000000
C194  C     C_R   0.868221 0.950281 0.973466 0.000000
C195  C     C_R   0.901616 0.919725 0.984407 0.000000
C196  C     C_R   0.890968 0.868819 0.978438 0.000000
C197  C     C_R   0.846814 0.846932 0.958761 0.000000
C198  C     C_R   0.816765 0.875797 0.944436 0.000000
N66   N     N_R   0.768383 0.862597 0.933892 0.000000
H211  H     H_    0.589732 0.943185 0.001855 0.000000
H212  H     H_    0.584101 0.005424 0.996359 0.000000
H213  H     H_    0.603700 0.942586 0.933920 0.000000
H214  H     H_    0.674384 0.981226 0.012726 0.000000
H215  H     H_    0.672428 0.888858 0.950142 0.000000
H216  H     H_    0.690581 0.903319 0.889368 0.000000
H217  H     H_    0.873092 0.992326 0.986363 0.000000
H218  H     H_    0.937599 0.935245 0.996953 0.000000
H219  H     H_    0.916744 0.846542 0.989002 0.000000
H220  H     H_    0.834821 0.809332 0.956987 0.000000
C199  C     C_3   0.991892 0.954443 0.884905 0.000000
N67   N     N_3   0.957690 0.963169 0.854007 0.000000
C200  C     C_3   0.925447 0.016731 0.891615 0.000000
C201  C     C_R   0.893787 0.027916 0.860274 0.000000
N68   N     N_R   0.918987 0.026662 0.808533 0.000000
C202  C     C_R   0.873730 0.034270 0.793553 0.000000
C203  C     C_R   0.872920 0.031051 0.742399 0.000000
C204  C     C_R   0.822301 0.044884 0.737518 0.000000
C205  C     C_R   0.774480 0.062463 0.783710 0.000000
C206  C     C_R   0.775752 0.062688 0.833770 0.000000
C207  C     C_R   0.825335 0.044244 0.836213 0.000000
N69   N     N_R   0.835711 0.037048 0.878517 0.000000
H221  H     H_    0.022078 0.917212 0.855998 0.000000
H222  H     H_    0.013378 0.990757 0.905935 0.000000
H223  H     H_    0.965530 0.948426 0.918598 0.000000
H224  H     H_    0.929627 0.933188 0.845664 0.000000
H225  H     H_    0.893940 0.015761 0.926151 0.000000
H226  H     H_    0.951878 0.050156 0.908945 0.000000
H227  H     H_    0.910908 0.019506 0.707663 0.000000
H228  H     H_    0.820461 0.044184 0.698418 0.000000
H229  H     H_    0.735736 0.075924 0.780517 0.000000
H230  H     H_    0.739093 0.079056 0.870006 0.000000
C208  C     C_3   0.081851 0.776625 0.156860 0.000000
N70   N     N_3   0.050317 0.830058 0.200284 0.000000
C209  C     C_3   0.081958 0.858247 0.241951 0.000000
C210  C     C_R   0.053600 0.914522 0.286538 0.000000
N71   N     N_R   0.004643 0.932408 0.282408 0.000000
C211  C     C_R   0.970748 0.952833 0.336507 0.000000
C212  C     C_R   0.914441 0.971288 0.357102 0.000000
C213  C     C_R   0.888621 0.991108 0.415070 0.000000
C214  C     C_R   0.919004 0.991705 0.451118 0.000000
C215  C     C_R   0.975511 0.972892 0.429413 0.000000
C216  C     C_R   0.000080 0.953601 0.372005 0.000000
N72   N     N_R   0.053721 0.932275 0.342510 0.000000
H231  H     H_    0.058284 0.753603 0.124880 0.000000
H232  H     H_    0.123220 0.782641 0.134325 0.000000
H233  H     H_    0.088028 0.751992 0.177377 0.000000
H234  H     H_    0.012914 0.821907 0.221507 0.000000
H235  H     H_    0.082024 0.834342 0.264460 0.000000
H236  H     H_    0.125204 0.860270 0.220440 0.000000
H237  H     H_    0.891884 0.974571 0.330212 0.000000
H238  H     H_    0.844686 0.006878 0.432473 0.000000
H239  H     H_    0.898446 0.006969 0.496276 0.000000
H240  H     H_    0.999595 0.971289 0.455834 0.000000
C217  C     C_3   0.907216 0.785807 0.098022 0.000000
N73   N     N_3   0.965119 0.793462 0.099109 0.000000
C218  C     C_3   0.986331 0.823940 0.068846 0.000000
C219  C     C_R   0.039468 0.845935 0.081866 0.000000
N74   N     N_R   0.041566 0.886529 0.136505 0.000000
C220  C     C_R   0.097022 0.887973 0.128898 0.000000
C221  C     C_R   0.123424 0.919065 0.169958 0.000000
C222  C     C_R   0.179883 0.904169 0.157025 0.000000
C223  C     C_R   0.208133 0.861563 0.102998 0.000000
C224  C     C_R   0.182584 0.838652 0.059197 0.000000
C225  C     C_R   0.126137 0.852496 0.073403 0.000000
N75   N     N_R   0.091257 0.828406 0.040415 0.000000
H241  H     H_    0.895581 0.748972 0.102723 0.000000
H242  H     H_    0.879268 0.822542 0.133957 0.000000
H243  H     H_    0.901671 0.780316 0.057109 0.000000
H244  H     H_    0.987766 0.754245 0.075683 0.000000
H245  H     H_    0.994420 0.796210 0.021821 0.000000
H246  H     H_    0.954366 0.858240 0.083275 0.000000
H247  H     H_    0.100176 0.950958 0.212114 0.000000
H248  H     H_    0.201691 0.924228 0.189613 0.000000
H249  H     H_    0.251238 0.847457 0.094376 0.000000
H250  H     H_    0.205632 0.806756 0.017449 0.000000
C226  C     C_3   0.289046 0.044990 0.448217 0.000000
N76   N     N_3   0.348240 0.026370 0.418125 0.000000
C227  C     C_3   0.356986 0.970322 0.370177 0.000000
C228  C     C_R   0.412488 0.956409 0.326411 0.000000
N77   N     N_R   0.407021 0.930241 0.271318 0.000000
C229  C     C_R   0.431835 0.879020 0.250378 0.000000
C230  C     C_R   0.417663 0.830326 0.211486 0.000000
C231  C     C_R   0.440087 0.781285 0.203857 0.000000
C232  C     C_R   0.480101 0.781866 0.231124 0.000000
C233  C     C_R   0.489415 0.831464 0.274178 0.000000
C234  C     C_R   0.461643 0.878782 0.284880 0.000000
N78   N     N_R   0.454263 0.928520 0.331897 0.000000
H251  H     H_    0.282611 0.090680 0.469284 0.000000
H252  H     H_    0.261523 0.026297 0.419533 0.000000
H253  H     H_    0.277316 0.035449 0.483644 0.000000
H254  H     H_    0.363960 0.023310 0.448003 0.000000
H255  H     H_    0.356503 0.940675 0.385957 0.000000
H256  H     H_    0.323856 0.961937 0.347944 0.000000
H257  H     H_    0.389651 0.830128 0.188003 0.000000
H258  H     H_    0.429616 0.742169 0.173214 0.000000
H259  H     H_    0.500656 0.743279 0.221780 0.000000
H260  H     H_    0.515494 0.833227 0.300623 0.000000
C235  C     C_3   0.576148 0.001640 0.540871 0.000000
N79   N     N_3   0.543568 0.017213 0.512735 0.000000
C236  C     C_3   0.483479 0.025565 0.539948 0.000000
C237  C     C_R   0.455232 0.046842 0.513445 0.000000
N80   N     N_R   0.422564 0.097934 0.541299 0.000000
C238  C     C_R   0.424625 0.104246 0.494952 0.000000
C239  C     C_R   0.390189 0.138031 0.490357 0.000000
C240  C     C_R   0.394722 0.128994 0.435057 0.000000
C241  C     C_R   0.435727 0.091943 0.387144 0.000000
C242  C     C_R   0.468664 0.057256 0.392396 0.000000
C243  C     C_R   0.457718 0.061519 0.445328 0.000000
N81   N     N_R   0.472405 0.022101 0.454820 0.000000
H261  H     H_    0.570158 0.034838 0.585524 0.000000
H262  H     H_    0.564423 0.962127 0.539353 0.000000
H263  H     H_    0.621206 0.995494 0.517571 0.000000
H264  H     H_    0.550309 0.983136 0.471810 0.000000
H265  H     H_    0.468655 0.984802 0.530245 0.000000
H266  H     H_    0.473647 0.057548 0.584829 0.000000
H267  H     H_    0.358402 0.167151 0.527676 0.000000
H268  H     H_    0.364028 0.147919 0.427176 0.000000
H269  H     H_    0.437832 0.086510 0.345114 0.000000
H270  H     H_    0.497637 0.024040 0.355428 0.000000
C244  C     C_3   0.415803 0.739774 0.316490 0.000000
N82   N     N_3   0.450520 0.771908 0.353502 0.000000
C245  C     C_3   0.421401 0.827219 0.393831 0.000000
C246  C     C_R   0.455077 0.858994 0.434997 0.000000
N83   N     N_R   0.464689 0.839301 0.470512 0.000000
C247  C     C_R   0.520097 0.843477 0.463915 0.000000
C248  C     C_R   0.557258 0.811830 0.469165 0.000000
C249  C     C_R   0.613775 0.817461 0.454404 0.000000
C250  C     C_R   0.632599 0.851354 0.430821 0.000000
C251  C     C_R   0.595404 0.877488 0.418858 0.000000
C252  C     C_R   0.539263 0.872496 0.435246 0.000000
N84   N     N_R   0.497933 0.886606 0.419308 0.000000
H271  H     H_    0.440727 0.701037 0.279844 0.000000
H272  H     H_    0.379349 0.729649 0.341435 0.000000
H273  H     H_    0.400225 0.763819 0.299760 0.000000
H274  H     H_    0.489508 0.773274 0.329067 0.000000
H275  H     H_    0.415184 0.849512 0.371224 0.000000
H276  H     H_    0.380070 0.821528 0.415808 0.000000
H277  H     H_    0.543801 0.778693 0.477744 0.000000
H278  H     H_    0.643746 0.793163 0.458593 0.000000
H279  H     H_    0.677014 0.854223 0.418009 0.000000
H280  H     H_    0.610774 0.899219 0.395484 0.000000
C253  C     C_3   0.096765 0.851212 0.721881 0.000000
N85   N     N_3   0.075967 0.909230 0.748951 0.000000
C254  C     C_3   0.108378 0.940993 0.788281 0.000000
C255  C     C_R   0.085067 0.999442 0.827722 0.000000
N86   N     N_R   0.049013 0.028354 0.817664 0.000000
C256  C     C_R   0.043027 0.079510 0.862842 0.000000
C257  C     C_R   0.010753 0.125287 0.874607 0.000000
C258  C     C_R   0.013142 0.175397 0.921466 0.000000
C259  C     C_R   0.047439 0.178469 0.955126 0.000000
C260  C     C_R   0.078247 0.131290 0.943126 0.000000
C261  C     C_R   0.074206 0.081539 0.897507 0.000000
N87   N     N_R   0.099754 0.030627 0.878486 0.000000
H281  H     H_    0.087189 0.827976 0.680109 0.000000
H282  H     H_    0.142483 0.846849 0.712836 0.000000
H283  H     H_    0.077764 0.833918 0.750385 0.000000
H284  H     H_    0.034107 0.913330 0.770266 0.000000
H285  H     H_    0.108269 0.923204 0.816179 0.000000
H286  H     H_    0.150595 0.940506 0.762491 0.000000
H287  H     H_    0.984517 0.122481 0.848123 0.000000
H288  H     H_    0.988527 0.212297 0.931662 0.000000
H289  H     H_    0.049225 0.217775 0.991784 0.000000
H290  H     H_    0.102188 0.133646 0.970853 0.000000
C262  C     C_3   0.012471 0.928715 0.041470 0.000000
N88   N     N_3   0.051143 0.906046 0.986470 0.000000
C263  C     C_3   0.097074 0.938902 0.995611 0.000000
C264  C     C_R   0.138349 0.907342 0.943454 0.000000
N89   N     N_R   0.141781 0.850465 0.922471 0.000000
C265  C     C_R   0.162016 0.831566 0.866724 0.000000
C266  C     C_R   0.171252 0.776666 0.826721 0.000000
C267  C     C_R   0.193142 0.762846 0.770668 0.000000
C268  C     C_R   0.200900 0.804365 0.756427 0.000000
C269  C     C_R   0.189541 0.859558 0.797628 0.000000
C270  C     C_R   0.170316 0.874039 0.854280 0.000000
N90   N     N_R   0.155111 0.925147 0.903009 0.000000
H291  H     H_    0.975389 0.906143 0.039307 0.000000
H292  H     H_    0.032486 0.924746 0.069592 0.000000
H293  H     H_    0.004390 0.973122 0.058331 0.000000
H294  H     H_    0.033678 0.912345 0.959124 0.000000
H295  H     H_    0.086514 0.980092 0.001819 0.000000
H296  H     H_    0.112329 0.939667 0.030087 0.000000
H297  H     H_    0.163555 0.745142 0.839081 0.000000
H298  H     H_    0.204313 0.719857 0.738651 0.000000
H299  H     H_    0.216690 0.793852 0.712298 0.000000
H300  H     H_    0.195527 0.889133 0.783875 0.000000
C271  C     C_3   0.343905 0.911085 0.791322 0.000000
N91   N     N_3   0.283674 0.919244 0.804929 0.000000
C272  C     C_3   0.269480 0.961412 0.792164 0.000000
C273  C     C_R   0.269573 0.016193 0.839998 0.000000
N92   N     N_R   0.226574 0.041366 0.890783 0.000000
C274  C     C_R   0.241356 0.093973 0.915471 0.000000
C275  C     C_R   0.213569 0.140766 0.965431 0.000000
C276  C     C_R   0.235428 0.190870 0.979469 0.000000
C277  C     C_R   0.284995 0.194073 0.944559 0.000000
C278  C     C_R   0.313919 0.146709 0.895863 0.000000
C279  C     C_R   0.290495 0.098000 0.881874 0.000000
N93   N     N_R   0.309918 0.049498 0.833945 0.000000
H301  H     H_    0.355367 0.899811 0.820886 0.000000
H302  H     H_    0.361467 0.878629 0.746048 0.000000
H303  H     H_    0.361267 0.949843 0.797818 0.000000
H304  H     H_    0.267244 0.934572 0.848994 0.000000
H305  H     H_    0.299359 0.956184 0.752586 0.000000
H306  H     H_    0.227617 0.959987 0.786021 0.000000
H307  H     H_    0.176034 0.140255 0.994146 0.000000
H308  H     H_    0.213610 0.227922 0.018257 0.000000
H309  H     H_    0.301469 0.233546 0.955879 0.000000
H310  H     H_    0.352262 0.148441 0.868084 0.000000
C280  C     C_3   0.901169 0.665646 0.975238 0.000000
N94   N     N_3   0.891518 0.657375 0.922098 0.000000
C281  C     C_3   0.885275 0.710983 0.925270 0.000000
C282  C     C_R   0.866459 0.702325 0.874796 0.000000
N95   N     N_R   0.896724 0.663162 0.819061 0.000000
C283  C     C_R   0.858684 0.656415 0.790027 0.000000
C284  C     C_R   0.865966 0.621907 0.732680 0.000000
C285  C     C_R   0.821255 0.619249 0.710516 0.000000
C286  C     C_R   0.770203 0.650346 0.746666 0.000000
C287  C     C_R   0.764108 0.685921 0.804710 0.000000
C288  C     C_R   0.809774 0.690189 0.825151 0.000000
N96   N     N_R   0.813135 0.722827 0.879554 0.000000
H311  H     H_    0.907905 0.624828 0.972364 0.000000
H312  H     H_    0.938288 0.688252 0.982620 0.000000
H313  H     H_    0.864761 0.689903 0.011993 0.000000
H314  H     H_    0.853576 0.640386 0.919299 0.000000
H315  H     H_    0.854060 0.739095 0.965777 0.000000
H316  H     H_    0.925548 0.729111 0.924706 0.000000
H317  H     H_    0.905697 0.598028 0.706678 0.000000
H318  H     H_    0.825633 0.591896 0.665223 0.000000
H319  H     H_    0.734834 0.646422 0.729429 0.000000
H320  H     H_    0.723932 0.706788 0.833409 0.000000
C289  C     C_3   0.680302 0.788209 0.786353 0.000000
N97   N     N_3   0.681598 0.786615 0.837994 0.000000
C290  C     C_3   0.628227 0.812513 0.881185 0.000000
C291  C     C_R   0.622667 0.805642 0.933001 0.000000
N98   N     N_R   0.667027 0.779231 0.936357 0.000000
C292  C     C_R   0.642517 0.740658 0.947933 0.000000
C293  C     C_R   0.669434 0.692511 0.937100 0.000000
C294  C     C_R   0.637608 0.650268 0.935848 0.000000
C295  C     C_R   0.580408 0.655995 0.942658 0.000000
C296  C     C_R   0.554274 0.704641 0.952512 0.000000
C297  C     C_R   0.585989 0.747506 0.957228 0.000000
N99   N     N_R   0.571501 0.791796 0.953310 0.000000
H321  H     H_    0.722996 0.775209 0.756013 0.000000
H322  H     H_    0.651390 0.759137 0.765273 0.000000
H323  H     H_    0.666462 0.830860 0.797327 0.000000
H324  H     H_    0.714124 0.808338 0.852616 0.000000
H325  H     H_    0.618842 0.855018 0.891598 0.000000
H326  H     H_    0.595291 0.791955 0.861887 0.000000
H327  H     H_    0.714475 0.685285 0.923374 0.000000
H328  H     H_    0.657895 0.611357 0.926017 0.000000
H329  H     H_    0.556279 0.621818 0.938998 0.000000
H330  H     H_    0.510507 0.708174 0.955148 0.000000
C298  C     C_3   0.606541 0.102951 0.114245 0.000000
N100  N     N_3   0.562797 0.086119 0.085529 0.000000
C299  C     C_3   0.518343 0.130832 0.116826 0.000000
C300  C     C_R   0.471903 0.118699 0.089441 0.000000
N101  N     N_R   0.478365 0.100291 0.030932 0.000000
C301  C     C_R   0.430636 0.124806 0.034058 0.000000
C302  C     C_R   0.423632 0.143467 0.998144 0.000000
C303  C     C_R   0.373604 0.172812 0.010887 0.000000
C304  C     C_R   0.331088 0.182433 0.059042 0.000000
C305  C     C_R   0.342474 0.170197 0.098609 0.000000
C306  C     C_R   0.394869 0.147306 0.087551 0.000000
N102  N     N_R   0.419859 0.146359 0.124925 0.000000
H331  H     H_    0.615112 0.145347 0.123943 0.000000
H332  H     H_    0.592913 0.101248 0.154481 0.000000
H333  H     H_    0.645141 0.074911 0.085493 0.000000
H334  H     H_    0.547402 0.053098 0.090865 0.000000
H335  H     H_    0.501802 0.138093 0.161417 0.000000
H336  H     H_    0.533931 0.169344 0.118736 0.000000
H337  H     H_    0.458819 0.145068 0.967804 0.000000
H338  H     H_    0.369161 0.190196 0.984461 0.000000
H339  H     H_    0.291217 0.204483 0.068702 0.000000
H340  H     H_    0.312352 0.181621 0.138554 0.000000
C307  C     C_3   0.370832 0.021436 0.078857 0.000000
N103  N     N_3   0.407249 0.989641 0.020921 0.000000
C308  C     C_3   0.460462 0.969466 0.021429 0.000000
C309  C     C_R   0.492589 0.934670 0.961201 0.000000
N104  N     N_R   0.497221 0.877148 0.932227 0.000000
C310  C     C_R   0.512855 0.865832 0.876895 0.000000
C311  C     C_R   0.519618 0.815481 0.828201 0.000000
C312  C     C_R   0.541941 0.811857 0.775480 0.000000
C313  C     C_R   0.549930 0.859470 0.771804 0.000000
C314  C     C_R   0.535299 0.910711 0.820872 0.000000
C315  C     C_R   0.520653 0.912921 0.873319 0.000000
N105  N     N_R   0.509456 0.957928 0.926203 0.000000
H341  H     H_    0.328033 0.029645 0.077577 0.000000
H342  H     H_    0.370095 0.999306 0.102469 0.000000
H343  H     H_    0.386392 0.060330 0.102673 0.000000
H344  H     H_    0.415641 0.016782 0.004580 0.000000
H345  H     H_    0.483878 0.004449 0.042317 0.000000
H346  H     H_    0.454662 0.944161 0.042605 0.000000
H347  H     H_    0.509927 0.779176 0.830013 0.000000
H348  H     H_    0.551614 0.771788 0.736919 0.000000
H349  H     H_    0.565974 0.855811 0.730048 0.000000
H350  H     H_    0.533754 0.947374 0.817563 0.000000
C316  C     C_3   0.334982 0.988430 0.935251 0.000000
N106  N     N_3   0.359483 0.016781 0.903544 0.000000
C317  C     C_3   0.418331 0.996139 0.878749 0.000000
C318  C     C_R   0.451526 0.034831 0.864823 0.000000
N107  N     N_R   0.440100 0.058379 0.833846 0.000000
C319  C     C_R   0.476828 0.096876 0.842396 0.000000
C320  C     C_R   0.473758 0.144781 0.839118 0.000000
C321  C     C_R   0.515862 0.178959 0.851008 0.000000
C322  C     C_R   0.558793 0.166091 0.867953 0.000000
C323  C     C_R   0.557235 0.121692 0.878023 0.000000
C324  C     C_R   0.513762 0.089595 0.867867 0.000000
N108  N     N_R   0.496590 0.052990 0.886152 0.000000
H351  H     H_    0.293606 0.977209 0.928555 0.000000
H352  H     H_    0.361571 0.949765 0.920102 0.000000
H353  H     H_    0.330036 0.016106 0.981541 0.000000
H354  H     H_    0.356507 0.058710 0.933693 0.000000
H355  H     H_    0.433410 0.994505 0.911792 0.000000
H356  H     H_    0.426110 0.954619 0.840421 0.000000
H357  H     H_    0.439748 0.156315 0.827933 0.000000
H358  H     H_    0.515511 0.215675 0.846557 0.000000
H359  H     H_    0.592198 0.192372 0.875927 0.000000
H360  H     H_    0.589858 0.112733 0.892555 0.000000
C325  C     C_3   0.947541 0.359240 0.548723 0.000000
N109  N     N_3   0.004107 0.360371 0.554713 0.000000
C326  C     C_3   0.039447 0.373582 0.512720 0.000000
C327  C     C_R   0.098156 0.350940 0.497172 0.000000
N110  N     N_R   0.123554 0.350666 0.536973 0.000000
C328  C     C_R   0.174324 0.325108 0.501401 0.000000
C329  C     C_R   0.218177 0.319269 0.518660 0.000000
C330  C     C_R   0.270283 0.317817 0.486955 0.000000
C331  C     C_R   0.278949 0.314809 0.434285 0.000000
C332  C     C_R   0.233910 0.316262 0.415033 0.000000
C333  C     C_R   0.181550 0.317609 0.447538 0.000000
N111  N     N_R   0.133868 0.331584 0.441518 0.000000
H361  H     H_    0.918187 0.356698 0.585057 0.000000
H362  H     H_    0.934773 0.397510 0.549121 0.000000
H363  H     H_    0.945716 0.322234 0.507878 0.000000
H364  H     H_    0.017897 0.320271 0.543853 0.000000
H365  H     H_    0.025172 0.354642 0.473321 0.000000
H366  H     H_    0.038127 0.418682 0.530184 0.000000
H367  H     H_    0.211245 0.320167 0.558242 0.000000
H368  H     H_    0.301910 0.329556 0.508595 0.000000
H369  H     H_    0.319453 0.319604 0.412576 0.000000
H370  H     H_    0.239352 0.331716 0.385754 0.000000
C334  C     C_3   0.280943 0.447169 0.306880 0.000000
N112  N     N_3   0.234456 0.429249 0.336723 0.000000
C335  C     C_3   0.212585 0.475605 0.393056 0.000000
C336  C     C_R   0.157016 0.468982 0.424263 0.000000
N113  N     N_R   0.128296 0.422524 0.403024 0.000000
C337  C     C_R   0.074200 0.446091 0.429377 0.000000
C338  C     C_R   0.025481 0.421302 0.424765 0.000000
C339  C     C_R   0.975225 0.455005 0.448608 0.000000
C340  C     C_R   0.973713 0.512269 0.479923 0.000000
C341  C     C_R   0.022085 0.536032 0.490763 0.000000
C342  C     C_R   0.071574 0.501864 0.464272 0.000000
N114  N     N_R   0.122925 0.517051 0.466194 0.000000
H371  H     H_    0.312378 0.411232 0.274953 0.000000
H372  H     H_    0.265110 0.465561 0.284550 0.000000
H373  H     H_    0.301999 0.478267 0.337594 0.000000
H374  H     H_    0.250804 0.399355 0.342996 0.000000
H375  H     H_    0.243689 0.483040 0.417190 0.000000
H376  H     H_    0.204860 0.511281 0.387188 0.000000
H377  H     H_    0.025381 0.377166 0.402387 0.000000
H378  H     H_    0.936708 0.436477 0.443374 0.000000
H379  H     H_    0.934099 0.538045 0.498932 0.000000
H380  H     H_    0.021085 0.580203 0.517912 0.000000
C343  C     C_3   0.243958 0.095549 0.227976 0.000000
N115  N     N_3   0.271659 0.144130 0.234953 0.000000
C344  C     C_3   0.231944 0.192701 0.276557 0.000000
C345  C     C_R   0.257290 0.243646 0.282866 0.000000
N116  N     N_R   0.309156 0.238092 0.245098 0.000000
C346  C     C_R   0.299527 0.277413 0.230867 0.000000
C347  C     C_R   0.330990 0.286572 0.187607 0.000000
C348  C     C_R   0.307262 0.318867 0.171158 0.000000
C349  C     C_R   0.251930 0.341281 0.197181 0.000000
C350  C     C_R   0.221242 0.333743 0.241856 0.000000
C351  C     C_R   0.246743 0.304444 0.259798 0.000000
N117  N     N_R   0.221196 0.289644 0.298836 0.000000
H381  H     H_    0.205137 0.096487 0.215729 0.000000
H382  H     H_    0.272565 0.058068 0.194158 0.000000
H383  H     H_    0.234076 0.095380 0.269158 0.000000
H384  H     H_    0.284234 0.141582 0.194782 0.000000
H385  H     H_    0.196873 0.191072 0.258387 0.000000
H386  H     H_    0.216642 0.194027 0.318690 0.000000
H387  H     H_    0.370181 0.263756 0.160875 0.000000
H388  H     H_    0.331234 0.323861 0.135405 0.000000
H389  H     H_    0.232879 0.364811 0.182799 0.000000
H390  H     H_    0.178437 0.350782 0.262444 0.000000
C352  C     C_3   0.505297 0.969279 0.167895 0.000000
N118  N     N_3   0.488838 0.027202 0.188160 0.000000
C353  C     C_3   0.444593 0.029722 0.163888 0.000000
C354  C     C_R   0.393563 0.058307 0.210878 0.000000
N119  N     N_R   0.367311 0.033259 0.242793 0.000000
C355  C     C_R   0.339494 0.077872 0.291612 0.000000
C356  C     C_R   0.310501 0.078763 0.340784 0.000000
C357  C     C_R   0.280996 0.128105 0.385093 0.000000
C358  C     C_R   0.282681 0.175206 0.379743 0.000000
C359  C     C_R   0.317469 0.174941 0.331682 0.000000
C360  C     C_R   0.345501 0.125462 0.287947 0.000000
N120  N     N_R   0.378312 0.115504 0.236321 0.000000
H391  H     H_    0.541253 0.965173 0.182752 0.000000
H392  H     H_    0.470329 0.952309 0.186589 0.000000
H393  H     H_    0.518285 0.945781 0.120105 0.000000
H394  H     H_    0.522308 0.042752 0.170837 0.000000
H395  H     H_    0.456594 0.053300 0.140943 0.000000
H396  H     H_    0.436417 0.987470 0.135926 0.000000
H397  H     H_    0.310015 0.041520 0.343557 0.000000
H398  H     H_    0.258302 0.130893 0.425235 0.000000
H399  H     H_    0.259587 0.213040 0.415271 0.000000
H400  H     H_    0.323128 0.212492 0.329113 0.000000
C361  C     C_3   0.120905 0.936276 0.563794 0.000000
N121  N     N_3   0.114505 0.975932 0.623166 0.000000
C362  C     C_3   0.125782 0.945919 0.650545 0.000000
C363  C     C_R   0.080345 0.912673 0.648801 0.000000
N122  N     N_R   0.028524 0.937474 0.687675 0.000000
C364  C     C_R   0.995416 0.898125 0.665635 0.000000
C365  C     C_R   0.939138 0.898653 0.688473 0.000000
C366  C     C_R   0.912408 0.853890 0.658557 0.000000
C367  C     C_R   0.942961 0.808411 0.608490 0.000000
C368  C     C_R   0.000138 0.807831 0.588391 0.000000
C369  C     C_R   0.025855 0.853462 0.615633 0.000000
N123  N     N_R   0.080974 0.861081 0.601919 0.000000
H401  H     H_    0.079482 0.923349 0.557565 0.000000
H402  H     H_    0.140368 0.954953 0.537211 0.000000
H403  H     H_    0.149273 0.900749 0.551097 0.000000
H404  H     H_    0.072067 0.990206 0.640308 0.000000
H405  H     H_    0.167242 0.920802 0.629630 0.000000
H406  H     H_    0.122398 0.974870 0.696181 0.000000
H407  H     H_    0.916230 0.931624 0.729337 0.000000
H408  H     H_    0.868166 0.853326 0.675644 0.000000
H409  H     H_    0.922744 0.771945 0.586978 0.000000
H410  H     H_    0.024781 0.770988 0.555854 0.000000
C370  C     C_3   0.167157 0.074454 0.778484 0.000000
N124  N     N_3   0.118090 0.101027 0.777625 0.000000
C371  C     C_3   0.126447 0.090835 0.719515 0.000000
C372  C     C_R   0.071333 0.094167 0.708499 0.000000
N125  N     N_R   0.022751 0.080939 0.736228 0.000000
C373  C     C_R   0.983130 0.114525 0.737513 0.000000
C374  C     C_R   0.929866 0.133412 0.774081 0.000000
C375  C     C_R   0.897009 0.170165 0.770127 0.000000
C376  C     C_R   0.918617 0.190105 0.732390 0.000000
C377  C     C_R   0.974280 0.175908 0.700852 0.000000
C378  C     C_R   0.005841 0.139294 0.705536 0.000000
N126  N     N_R   0.061733 0.127015 0.685670 0.000000
H411  H     H_    0.170723 0.093530 0.823054 0.000000
H412  H     H_    0.164108 0.029808 0.762467 0.000000
H413  H     H_    0.204767 0.078584 0.750037 0.000000
H414  H     H_    0.116230 0.143753 0.804164 0.000000
H415  H     H_    0.151128 0.122489 0.713975 0.000000
H416  H     H_    0.150940 0.050804 0.689966 0.000000
H417  H     H_    0.914791 0.123559 0.808018 0.000000
H418  H     H_    0.854677 0.184717 0.797951 0.000000
H419  H     H_    0.892879 0.219559 0.730396 0.000000
H420  H     H_    0.992696 0.195193 0.675683 0.000000
C379  C     C_3   0.170723 0.707741 0.639873 0.000000
N127  N     N_3   0.229109 0.692053 0.630623 0.000000
C380  C     C_3   0.256403 0.669791 0.569901 0.000000
C381  C     C_R   0.262807 0.610066 0.543011 0.000000
N128  N     N_R   0.311062 0.580792 0.535101 0.000000
C382  C     C_R   0.293643 0.531734 0.524501 0.000000
C383  C     C_R   0.322098 0.489580 0.522463 0.000000
C384  C     C_R   0.296148 0.442718 0.511531 0.000000
C385  C     C_R   0.241500 0.441516 0.507478 0.000000
C386  C     C_R   0.211170 0.486951 0.517311 0.000000
C387  C     C_R   0.239104 0.531128 0.523812 0.000000
N129  N     N_R   0.217702 0.580043 0.535131 0.000000
H421  H     H_    0.145075 0.711183 0.680949 0.000000
H422  H     H_    0.166027 0.747793 0.640794 0.000000
H423  H     H_    0.155637 0.675840 0.604794 0.000000
H424  H     H_    0.230667 0.659648 0.639676 0.000000
H425  H     H_    0.231253 0.683391 0.550917 0.000000
H426  H     H_    0.298428 0.682477 0.561936 0.000000
H427  H     H_    0.362082 0.493471 0.531689 0.000000
H428  H     H_    0.317746 0.409452 0.511050 0.000000
H429  H     H_    0.217764 0.410091 0.508899 0.000000
H430  H     H_    0.166455 0.488452 0.524240 0.000000
C388  C     C_3   0.542568 0.549508 0.606290 0.000000
N130  N     N_3   0.491624 0.587560 0.635071 0.000000
C389  C     C_3   0.442559 0.557137 0.633919 0.000000
C390  C     C_R   0.393379 0.598517 0.660777 0.000000
N131  N     N_R   0.374714 0.632429 0.720169 0.000000
C391  C     C_R   0.356953 0.679174 0.724154 0.000000
C392  C     C_R   0.365370 0.729836 0.763632 0.000000
C393  C     C_R   0.347663 0.774671 0.761282 0.000000
C394  C     C_R   0.327128 0.766810 0.716379 0.000000
C395  C     C_R   0.336007 0.714800 0.668679 0.000000
C396  C     C_R   0.354902 0.671669 0.672582 0.000000
N132  N     N_R   0.379946 0.621390 0.629949 0.000000
H431  H     H_    0.579414 0.573172 0.606318 0.000000
H432  H     H_    0.544382 0.526582 0.629339 0.000000
H433  H     H_    0.543267 0.519690 0.561583 0.000000
H434  H     H_    0.490725 0.609400 0.613251 0.000000
H435  H     H_    0.442858 0.527597 0.588902 0.000000
H436  H     H_    0.440604 0.535307 0.658924 0.000000
H437  H     H_    0.387821 0.734377 0.793878 0.000000
H438  H     H_    0.350651 0.815023 0.794483 0.000000
H439  H     H_    0.314322 0.802108 0.713791 0.000000
H440  H     H_    0.334179 0.710126 0.628885 0.000000
C397  C     C_3   0.467838 0.783559 0.684850 0.000000
N133  N     N_3   0.428973 0.770064 0.649909 0.000000
C398  C     C_3   0.455665 0.727430 0.591995 0.000000
C399  C     C_R   0.418811 0.714521 0.553266 0.000000
N134  N     N_R   0.408463 0.659987 0.524934 0.000000
C400  C     C_R   0.409322 0.652400 0.473029 0.000000
C401  C     C_R   0.414387 0.602620 0.423996 0.000000
C402  C     C_R   0.426723 0.602758 0.372275 0.000000
C403  C     C_R   0.430022 0.652457 0.371380 0.000000
C404  C     C_R   0.422209 0.702450 0.422132 0.000000
C405  C     C_R   0.414134 0.700885 0.471985 0.000000
N135  N     N_R   0.417646 0.742620 0.522900 0.000000
H441  H     H_    0.452692 0.824299 0.724222 0.000000
H442  H     H_    0.469869 0.751247 0.697349 0.000000
H443  H     H_    0.510453 0.784908 0.660761 0.000000
H444  H     H_    0.411773 0.804036 0.650687 0.000000
H445  H     H_    0.496109 0.737882 0.573488 0.000000
H446  H     H_    0.464180 0.689613 0.594026 0.000000
H447  H     H_    0.413102 0.564386 0.425087 0.000000
H448  H     H_    0.433366 0.564011 0.332374 0.000000
H449  H     H_    0.439790 0.651492 0.330491 0.000000
H450  H     H_    0.426213 0.741356 0.423151 0.000000
C406  C     C_3   0.242135 0.233914 0.580444 0.000000
N136  N     N_3   0.270545 0.280451 0.611085 0.000000
C407  C     C_3   0.234014 0.326362 0.661306 0.000000
C408  C     C_R   0.240976 0.374529 0.652107 0.000000
N137  N     N_R   0.291649 0.396943 0.646677 0.000000
C409  C     C_R   0.277692 0.438805 0.639437 0.000000
C410  C     C_R   0.308892 0.480502 0.639573 0.000000
C411  C     C_R   0.280600 0.526020 0.645520 0.000000
C412  C     C_R   0.228193 0.522601 0.636732 0.000000
C413  C     C_R   0.202199 0.475056 0.626112 0.000000
C414  C     C_R   0.224129 0.438669 0.636463 0.000000
N138  N     N_R   0.198428 0.398675 0.643884 0.000000
H451  H     H_    0.237805 0.235028 0.542184 0.000000
H452  H     H_    0.268403 0.194911 0.563690 0.000000
H453  H     H_    0.201458 0.233663 0.607286 0.000000
H454  H     H_    0.277689 0.296461 0.583406 0.000000
H455  H     H_    0.189826 0.319278 0.667004 0.000000
H456  H     H_    0.246667 0.335702 0.700368 0.000000
H457  H     H_    0.352451 0.479840 0.638670 0.000000
H458  H     H_    0.300308 0.562520 0.651228 0.000000
H459  H     H_    0.208620 0.556659 0.636286 0.000000
H460  H     H_    0.163553 0.467837 0.614032 0.000000
C415  C     C_3   0.195601 0.532781 0.812946 0.000000
N139  N     N_3   0.246978 0.536164 0.774997 0.000000
C416  C     C_3   0.291280 0.501984 0.773122 0.000000
C417  C     C_R   0.348631 0.509657 0.745322 0.000000
N140  N     N_R   0.385287 0.462038 0.709959 0.000000
C418  C     C_R   0.430728 0.474570 0.729479 0.000000
C419  C     C_R   0.476185 0.438811 0.715496 0.000000
C420  C     C_R   0.514837 0.459186 0.746971 0.000000
C421  C     C_R   0.505673 0.513193 0.792800 0.000000
C422  C     C_R   0.458740 0.548035 0.806526 0.000000
C423  C     C_R   0.423293 0.528362 0.771853 0.000000
N141  N     N_R   0.373843 0.553388 0.778931 0.000000
H461  H     H_    0.161932 0.563872 0.822526 0.000000
H462  H     H_    0.182067 0.490737 0.791807 0.000000
H463  H     H_    0.201821 0.541600 0.854699 0.000000
H464  H     H_    0.256500 0.576909 0.792899 0.000000
H465  H     H_    0.290596 0.511783 0.817204 0.000000
H466  H     H_    0.283736 0.458146 0.750619 0.000000
H467  H     H_    0.480681 0.395856 0.682493 0.000000
H468  H     H_    0.551156 0.432239 0.737430 0.000000
H469  H     H_    0.534853 0.527792 0.818711 0.000000
H470  H     H_    0.449691 0.588591 0.844316 0.000000
C424  C     C_3   0.540977 0.195471 0.528976 0.000000
N142  N     N_3   0.497723 0.221433 0.583580 0.000000
C425  C     C_3   0.453140 0.248480 0.577017 0.000000
C426  C     C_R   0.404091 0.268241 0.628968 0.000000
N143  N     N_R   0.386104 0.237039 0.655563 0.000000
C427  C     C_R   0.362974 0.276585 0.710493 0.000000
C428  C     C_R   0.344733 0.269924 0.757887 0.000000
C429  C     C_R   0.325408 0.316770 0.811237 0.000000
C430  C     C_R   0.323599 0.368979 0.815977 0.000000
C431  C     C_R   0.342430 0.374871 0.767522 0.000000
C432  C     C_R   0.362341 0.327819 0.715269 0.000000
N144  N     N_R   0.385782 0.324161 0.663789 0.000000
H471  H     H_    0.581733 0.191418 0.536879 0.000000
H472  H     H_    0.530573 0.153816 0.500538 0.000000
H473  H     H_    0.544180 0.221035 0.507603 0.000000
H474  H     H_    0.514965 0.252483 0.613894 0.000000
H475  H     H_    0.468400 0.285132 0.573803 0.000000
H476  H     H_    0.441964 0.219928 0.537516 0.000000
H477  H     H_    0.347967 0.229856 0.754019 0.000000
H478  H     H_    0.311791 0.312671 0.849508 0.000000
H479  H     H_    0.308751 0.405342 0.857924 0.000000
H480  H     H_    0.344255 0.415357 0.771656 0.000000
C433  C     C_3   0.181408 0.284750 0.805593 0.000000
N145  N     N_3   0.193394 0.229744 0.755202 0.000000
C434  C     C_3   0.217213 0.235333 0.704545 0.000000
C435  C     C_R   0.233786 0.179539 0.652473 0.000000
N146  N     N_R   0.287608 0.152468 0.631493 0.000000
C436  C     C_R   0.278535 0.100438 0.600654 0.000000
C437  C     C_R   0.309062 0.059261 0.597518 0.000000
C438  C     C_R   0.279952 0.018937 0.602516 0.000000
C439  C     C_R   0.228628 0.011347 0.593318 0.000000
C440  C     C_R   0.200209 0.049370 0.588051 0.000000
C441  C     C_R   0.224179 0.096543 0.598167 0.000000
N147  N     N_R   0.194704 0.146272 0.627860 0.000000
H481  H     H_    0.217653 0.294678 0.823708 0.000000
H482  H     H_    0.172468 0.316523 0.794324 0.000000
H483  H     H_    0.144510 0.285273 0.838689 0.000000
H484  H     H_    0.155002 0.214250 0.751955 0.000000
H485  H     H_    0.185022 0.257841 0.699807 0.000000
H486  H     H_    0.254532 0.257847 0.709713 0.000000
H487  H     H_    0.349177 0.065426 0.605821 0.000000
H488  H     H_    0.296538 0.991607 0.612591 0.000000
H489  H     H_    0.211390 0.976315 0.594183 0.000000
H490  H     H_    0.156558 0.048210 0.590277 0.000000
C442  C     C_3   0.233526 0.188389 0.834569 0.000000
N148  N     N_3   0.288851 0.179165 0.795519 0.000000
C443  C     C_3   0.301186 0.121532 0.749887 0.000000
C444  C     C_R   0.362310 0.110281 0.722162 0.000000
N149  N     N_R   0.389022 0.132097 0.687379 0.000000
C445  C     C_R   0.441998 0.129728 0.689948 0.000000
C446  C     C_R   0.485786 0.151525 0.668091 0.000000
C447  C     C_R   0.538063 0.142382 0.672997 0.000000
C448  C     C_R   0.545959 0.108688 0.695633 0.000000
C449  C     C_R   0.501320 0.085667 0.715585 0.000000
C450  C     C_R   0.448419 0.101032 0.717128 0.000000
N150  N     N_R   0.398302 0.087998 0.739167 0.000000
H491  H     H_    0.225662 0.232108 0.869720 0.000000
H492  H     H_    0.201535 0.180287 0.811122 0.000000
H493  H     H_    0.230509 0.161052 0.853697 0.000000
H494  H     H_    0.318124 0.187514 0.818967 0.000000
H495  H     H_    0.289550 0.093682 0.768332 0.000000
H496  H     H_    0.278669 0.114637 0.717700 0.000000
H497  H     H_    0.479497 0.175018 0.647846 0.000000
H498  H     H_    0.573441 0.159255 0.656573 0.000000
H499  H     H_    0.587575 0.099188 0.696307 0.000000
H500  H     H_    0.508244 0.057103 0.730075 0.000000
C451  C     C_3   0.257377 0.857129 0.655304 0.000000
N151  N     N_3   0.287360 0.802658 0.613319 0.000000
C452  C     C_3   0.264741 0.779094 0.564021 0.000000
C453  C     C_R   0.274017 0.815234 0.539649 0.000000
N152  N     N_R   0.233094 0.834562 0.524859 0.000000
C454  C     C_R   0.262583 0.869902 0.510073 0.000000
C455  C     C_R   0.249225 0.898560 0.485849 0.000000
C456  C     C_R   0.287473 0.928554 0.469926 0.000000
C457  C     C_R   0.337243 0.935548 0.484507 0.000000
C458  C     C_R   0.348823 0.909782 0.512809 0.000000
C459  C     C_R   0.314042 0.873168 0.519144 0.000000
N153  N     N_R   0.324839 0.837021 0.534842 0.000000
H501  H     H_    0.259081 0.865969 0.698208 0.000000
H502  H     H_    0.277485 0.889576 0.647178 0.000000
H503  H     H_    0.213359 0.858787 0.654221 0.000000
H504  H     H_    0.279385 0.777700 0.632167 0.000000
H505  H     H_    0.289576 0.739406 0.530046 0.000000
H506  H     H_    0.219429 0.775034 0.576222 0.000000
H507  H     H_    0.210501 0.898676 0.478452 0.000000
H508  H     H_    0.275772 0.948173 0.448326 0.000000
H509  H     H_    0.366323 0.961956 0.476036 0.000000
H510  H     H_    0.385584 0.916603 0.527625 0.000000
C460  C     C_3   0.459107 0.975849 0.619995 0.000000
N154  N     N_3   0.400113 0.996160 0.635622 0.000000
C461  C     C_3   0.360493 0.963363 0.652833 0.000000
C462  C     C_R   0.388650 0.928932 0.666409 0.000000
N155  N     N_R   0.417829 0.879156 0.622013 0.000000
C463  C     C_R   0.462491 0.877255 0.640942 0.000000
C464  C     C_R   0.512618 0.846144 0.607038 0.000000
C465  C     C_R   0.559890 0.861766 0.625808 0.000000
C466  C     C_R   0.555915 0.908592 0.678285 0.000000
C467  C     C_R   0.504387 0.937520 0.714274 0.000000
C468  C     C_R   0.457473 0.921097 0.695257 0.000000
N156  N     N_R   0.410002 0.954694 0.713082 0.000000
H511  H     H_    0.474224 0.982300 0.655902 0.000000
H512  H     H_    0.471351 0.935064 0.580208 0.000000
H513  H     H_    0.485363 0.005167 0.614636 0.000000
H514  H     H_    0.392793 0.995118 0.599897 0.000000
H515  H     H_    0.325586 0.991301 0.690285 0.000000
H516  H     H_    0.344614 0.934279 0.617267 0.000000
H517  H     H_    0.514891 0.811704 0.566029 0.000000
H518  H     H_    0.600303 0.838696 0.598533 0.000000
H519  H     H_    0.593387 0.922586 0.691439 0.000000
H520  H     H_    0.502938 0.975426 0.752894 0.000000
C469  C     C_3   0.296868 0.819644 0.324944 0.000000
N157  N     N_3   0.248345 0.854236 0.371394 0.000000
C470  C     C_3   0.205132 0.819357 0.376628 0.000000
C471  C     C_R   0.151380 0.851716 0.420296 0.000000
N158  N     N_R   0.125064 0.831980 0.457232 0.000000
C472  C     C_R   0.071863 0.834139 0.454521 0.000000
C473  C     C_R   0.031003 0.806004 0.468963 0.000000
C474  C     C_R   0.980965 0.805666 0.455826 0.000000
C475  C     C_R   0.974779 0.829882 0.423615 0.000000
C476  C     C_R   0.018518 0.854468 0.405130 0.000000
C477  C     C_R   0.065671 0.858975 0.423774 0.000000
N159  N     N_R   0.114476 0.875678 0.405621 0.000000
H521  H     H_    0.333223 0.844063 0.326971 0.000000
H522  H     H_    0.306217 0.783547 0.329642 0.000000
H523  H     H_    0.288779 0.804400 0.282705 0.000000
H524  H     H_    0.233901 0.884606 0.364749 0.000000
H525  H     H_    0.197524 0.791666 0.334554 0.000000
H526  H     H_    0.219823 0.792411 0.390475 0.000000
H527  H     H_    0.041071 0.779735 0.483611 0.000000
H528  H     H_    0.948574 0.782592 0.466485 0.000000
H529  H     H_    0.937519 0.825725 0.409098 0.000000
H530  H     H_    0.017295 0.863659 0.372017 0.000000
C478  C     C_3   0.965625 0.002282 0.577737 0.000000
N160  N     N_3   0.002414 0.033816 0.556286 0.000000
C479  C     C_3   0.059939 0.011353 0.542655 0.000000
C480  C     C_R   0.101005 0.035970 0.513669 0.000000
N161  N     N_R   0.100479 0.017904 0.457298 0.000000
C481  C     C_R   0.074301 0.063837 0.464369 0.000000
C482  C     C_R   0.049237 0.068979 0.428236 0.000000
C483  C     C_R   0.014794 0.116956 0.449823 0.000000
C484  C     C_R   0.002600 0.157415 0.507078 0.000000
C485  C     C_R   0.029137 0.152280 0.542651 0.000000
C486  C     C_R   0.067691 0.106737 0.518935 0.000000
N162  N     N_R   0.095512 0.092947 0.546983 0.000000
H531  H     H_    0.921914 0.022258 0.594469 0.000000
H532  H     H_    0.967646 0.959214 0.542503 0.000000
H533  H     H_    0.978272 0.001496 0.613145 0.000000
H534  H     H_    0.996218 0.074260 0.590546 0.000000
H535  H     H_    0.067886 0.024204 0.584177 0.000000
H536  H     H_    0.063774 0.966410 0.512999 0.000000
H537  H     H_    0.054864 0.037137 0.384692 0.000000
H538  H     H_    0.998175 0.123357 0.421378 0.000000
H539  H     H_    0.974100 0.193931 0.523215 0.000000
H540  H     H_    0.020420 0.183664 0.587082 0.000000
C487  C     C_3   0.136978 0.057563 0.306317 0.000000
N163  N     N_3   0.150721 0.014557 0.318389 0.000000
C488  C     C_3   0.208539 0.015437 0.320845 0.000000
C489  C     C_R   0.230539 0.959794 0.305940 0.000000
N164  N     N_R   0.193410 0.926749 0.319205 0.000000
C490  C     C_R   0.214622 0.876098 0.274768 0.000000
C491  C     C_R   0.191221 0.827686 0.263362 0.000000
C492  C     C_R   0.216030 0.780427 0.212401 0.000000
C493  C     C_R   0.262976 0.782848 0.173933 0.000000
C494  C     C_R   0.286700 0.832084 0.186617 0.000000
C495  C     C_R   0.263112 0.878219 0.238930 0.000000
N165  N     N_R   0.277318 0.930691 0.259138 0.000000
H541  H     H_    0.090957 0.063915 0.314582 0.000000
H542  H     H_    0.151491 0.097072 0.334358 0.000000
H543  H     H_    0.156139 0.043804 0.260148 0.000000
H544  H     H_    0.147342 0.977109 0.283565 0.000000
H545  H     H_    0.234114 0.025911 0.288766 0.000000
H546  H     H_    0.210058 0.044260 0.364852 0.000000
H547  H     H_    0.153960 0.826619 0.292996 0.000000
H548  H     H_    0.198047 0.741745 0.201900 0.000000
H549  H     H_    0.280499 0.745733 0.133553 0.000000
H550  H     H_    0.320718 0.834099 0.154706 0.000000
C496  C     C_3   0.526982 0.745439 0.078796 0.000000
N166  N     N_3   0.484129 0.774576 0.071902 0.000000
C497  C     C_3   0.489743 0.833780 0.097096 0.000000
C498  C     C_R   0.441803 0.860720 0.092540 0.000000
N167  N     N_R   0.437462 0.848993 0.039033 0.000000
C499  C     C_R   0.386576 0.875102 0.052685 0.000000
C500  C     C_R   0.361969 0.882042 0.017010 0.000000
C501  C     C_R   0.311594 0.915720 0.042438 0.000000
C502  C     C_R   0.288583 0.942461 0.101558 0.000000
C503  C     C_R   0.314366 0.936056 0.136529 0.000000
C504  C     C_R   0.363220 0.902227 0.110804 0.000000
N168  N     N_R   0.396675 0.896001 0.138623 0.000000
H551  H     H_    0.569291 0.750784 0.057974 0.000000
H552  H     H_    0.524456 0.761112 0.123939 0.000000
H553  H     H_    0.521040 0.700791 0.059825 0.000000
H554  H     H_    0.444845 0.768956 0.092308 0.000000
H555  H     H_    0.489979 0.851964 0.142237 0.000000
H556  H     H_    0.529543 0.840533 0.072846 0.000000
H557  H     H_    0.382177 0.864045 0.971409 0.000000
H558  H     H_    0.292260 0.926037 0.017707 0.000000
H559  H     H_    0.251901 0.971068 0.121796 0.000000
H560  H     H_    0.297795 0.959810 0.182561 0.000000

loop_
_geom_bond_atom_site_label_1
_geom_bond_atom_site_label_2
_geom_bond_distance
_geom_bond_site_symmetry_2
_ccdc_geom_bond_type
Zn1   N3    2.093 .      S
Zn1   N15   2.183 .      S
Zn1   N110  2.224 .      S
Zn1   N138  2.149 .      S
Zn2   N5    2.073 .      S
Zn2   N18   2.202 .      S
Zn2   N114  2.086 .      S
Zn2   N129  2.057 .      S
Zn3   N6    2.110 .      S
Zn3   N123  2.220 .      S
Zn3   N152  2.229 .      S
Zn3   N158  2.180 .      S
Zn4   N2    2.119 .      S
Zn4   N126  2.093 .      S
Zn4   N147  2.103 .      S
Zn4   N162  2.138 .      S
Zn5   N9    2.143 .      S
Zn5   N11   2.099 .      S
Zn5   N75   2.122 1_556  S
Zn5   N89   2.157 .      S
Zn6   N12   2.115 1_655  S
Zn6   N14   2.103 1_655  S
Zn6   N17   2.158 1_655  S
Zn6   N95   2.177 .      S
Zn7   N20   2.085 .      S
Zn7   N99   2.055 .      S
Zn7   N104  2.105 .      S
Zn7   N167  2.096 1_556  S
Zn8   N93   2.060 .      S
Zn8   N107  2.079 .      S
Zn8   N150  2.131 .      S
Zn8   N156  2.107 1_545  S
Zn9   N8    2.136 .      S
Zn9   N21   2.020 .      S
Zn9   N131  2.103 .      S
Zn9   N141  2.063 .      S
Zn10  N24   2.168 .      S
Zn10  N27   2.153 .      S
Zn10  N30   2.200 .      S
Zn10  N32   2.170 .      S
Zn11  N23   2.159 1_455  S
Zn11  N35   2.207 .      S
Zn11  N38   2.127 .      S
Zn11  N42   2.064 .      S
Zn12  N26   2.145 1_565  S
Zn12  N44   2.128 .      S
Zn12  N48   2.001 .      S
Zn12  N50   2.116 .      S
Zn13  N29   2.166 .      S
Zn13  N53   2.132 .      S
Zn13  N57   2.106 .      S
Zn13  N60   2.142 .      S
Zn14  N33   2.111 1_556  S
Zn14  N63   2.026 .      S
Zn14  N65   2.193 1_545  S
Zn14  N69   2.182 .      S
Zn15  N41   2.170 1_565  S
Zn15  N47   2.071 .      S
Zn15  N71   2.061 1_655  S
Zn15  N74   2.115 1_655  S
Zn16  N51   2.146 .      S
Zn16  N78   2.081 .      S
Zn16  N81   2.045 1_565  S
Zn16  N84   2.162 .      S
Zn17  N36   2.189 1_556  S
Zn17  N87   2.106 .      S
Zn17  N90   2.273 1_545  S
Zn17  N92   2.141 .      S
Zn18  N45   2.108 1_556  S
Zn18  N66   2.072 .      S
Zn18  N96   2.214 .      S
Zn18  N98   2.075 .      S
Zn19  N62   2.057 .      S
Zn19  N101  2.177 1_556  S
Zn19  N105  2.103 1_545  S
Zn19  N108  2.048 .      S
Zn20  N39   2.063 .      S
Zn20  N111  2.132 .      S
Zn20  N113  2.128 .      S
Zn20  N117  2.175 .      S
Zn21  N54   2.102 .      S
Zn21  N102  2.095 .      S
Zn21  N116  2.205 .      S
Zn21  N120  2.212 .      S
Zn22  N68   2.143 1_455  S
Zn22  N86   2.027 .      S
Zn22  N122  2.128 1_545  S
Zn22  N125  2.167 .      S
Zn23  N56   2.154 .      S
Zn23  N128  2.048 .      S
Zn23  N132  2.091 .      S
Zn23  N134  2.055 .      S
Zn24  N59   2.113 .      S
Zn24  N137  2.085 .      S
Zn24  N140  2.017 .      S
Zn24  N144  2.077 .      S
Zn25  N80   2.194 .      S
Zn25  N143  2.068 .      S
Zn25  N146  2.093 .      S
Zn25  N149  2.112 .      S
Zn26  N83   2.217 .      S
Zn26  N135  2.116 .      S
Zn26  N153  2.124 .      S
Zn26  N155  2.156 .      S
Zn27  N72   2.067 .      S
Zn27  N159  2.121 .      S
Zn27  N161  2.154 1_565  S
Zn27  N164  2.120 .      S
Zn28  N77   2.057 .      S
Zn28  N119  2.189 1_565  S
Zn28  N165  2.177 .      S
Zn28  N168  2.125 .      S
C1    N1    1.445 .      S
C1    H1    1.093 .      S
C1    H2    1.093 .      S
C1    H3    1.102 .      S
N1    C2    1.438 .      S
N1    H4    1.035 .      S
C2    C3    1.477 .      S
C2    H5    1.072 .      S
C2    H6    1.108 .      S
C5    H7    1.075 .      S
C6    H8    1.081 .      S
C7    H9    1.081 .      S
C8    H10   1.079 .      S
C10   N4    1.454 .      S
C10   H11   1.109 .      S
C10   H12   1.109 1_455  S
C10   H13   1.109 .      S
N4    C11   1.455 .      S
N4    H14   1.044 .      S
C11   C12   1.496 .      S
C11   H15   1.096 .      S
C11   H16   1.108 .      S
C14   H17   1.066 .      S
C15   H18   1.077 .      S
C16   H19   1.076 .      S
C17   H20   1.067 .      S
H12   C10   1.109 1_655  S
C19   N7    1.454 .      S
C19   H21   1.106 .      S
C19   H22   1.107 .      S
C19   H23   1.102 .      S
N7    C20   1.451 .      S
N7    H24   1.032 .      S
C20   C21   1.472 .      S
C20   H25   1.090 .      S
C20   H26   1.092 .      S
C23   H27   1.075 .      S
C24   H28   1.081 .      S
C25   H29   1.081 1_556  S
C26   H30   1.074 1_556  S
H29   C25   1.081 1_554  S
H30   C26   1.074 1_554  S
C28   N10   1.436 .      S
C28   H31   1.108 .      S
C28   H32   1.091 .      S
C28   H33   1.104 1_655  S
N10   C29   1.441 1_655  S
N10   H34   1.033 .      S
C29   N10   1.441 1_455  S
C29   C30   1.461 .      S
C29   H35   1.109 .      S
C29   H36   1.101 .      S
C32   H37   1.068 .      S
C33   H38   1.081 .      S
C34   H39   1.081 .      S
C35   H40   1.073 1_455  S
N12   Zn6   2.115 1_455  S
H33   C28   1.104 1_455  S
H40   C35   1.073 1_655  S
C37   N13   1.453 .      S
C37   H41   1.107 .      S
C37   H42   1.096 .      S
C37   H43   1.107 .      S
N13   C38   1.430 .      S
N13   H44   1.037 .      S
C38   C39   1.484 .      S
C38   H45   1.083 .      S
C38   H46   1.105 .      S
N14   Zn6   2.103 1_455  S
C41   H47   1.079 .      S
C42   H48   1.081 .      S
C43   H49   1.081 .      S
C44   H50   1.077 .      S
C46   N16   1.450 .      S
C46   H51   1.098 .      S
C46   H52   1.108 .      S
C46   H53   1.109 .      S
N16   C47   1.453 1_655  S
N16   H54   1.039 1_655  S
C47   N16   1.453 1_455  S
C47   C48   1.491 .      S
C47   H55   1.095 .      S
C47   H56   1.093 .      S
N17   Zn6   2.158 1_455  S
C50   H57   1.064 .      S
C51   H58   1.081 .      S
C52   H59   1.065 .      S
C53   H60   1.060 .      S
H54   N16   1.039 1_455  S
C55   N19   1.447 1_554  S
C55   H61   1.108 .      S
C55   H62   1.106 .      S
C55   H63   1.106 .      S
N19   C55   1.447 1_556  S
N19   C56   1.449 .      S
N19   H64   1.043 .      S
C56   C57   1.477 .      S
C56   H65   1.094 .      S
C56   H66   1.100 .      S
C59   H67   1.051 .      S
C60   H68   1.080 .      S
C61   H69   1.075 .      S
C62   H70   1.068 .      S
C64   N22   1.455 .      S
C64   H71   1.109 .      S
C64   H72   1.106 .      S
C64   H73   1.110 .      S
N22   C65   1.458 .      S
N22   H74   1.044 .      S
C65   C66   1.488 .      S
C65   H75   1.092 .      S
C65   H76   1.100 .      S
N23   Zn11  2.159 1_655  S
C68   H77   1.079 .      S
C69   H78   1.081 .      S
C70   H79   1.081 .      S
C71   H80   1.066 .      S
C73   N25   1.442 .      S
C73   H81   1.108 .      S
C73   H82   1.107 .      S
C73   H83   1.100 .      S
N25   C74   1.445 .      S
N25   H84   1.043 .      S
C74   C75   1.468 .      S
C74   H85   1.088 .      S
C74   H86   1.086 .      S
N26   Zn12  2.145 1_545  S
C77   H87   1.049 1_545  S
C78   H88   1.077 .      S
C79   H89   1.053 .      S
C80   H90   1.077 .      S
H87   C77   1.049 1_565  S
C82   N28   1.451 .      S
C82   H91   1.090 .      S
C82   H92   1.108 .      S
C82   H93   1.098 .      S
N28   C83   1.449 .      S
N28   H94   1.040 .      S
C83   C84   1.466 .      S
C83   H95   1.098 .      S
C83   H96   1.095 .      S
C86   H97   1.062 .      S
C87   H98   1.080 .      S
C88   H99   1.080 .      S
C89   H100  1.066 .      S
C91   N31   1.472 .      S
C91   H101  1.093 .      S
C91   H102  1.101 .      S
C91   H103  1.087 .      S
N31   C92   1.465 .      S
N31   H104  1.036 .      S
C92   C93   1.433 .      S
C92   H105  1.091 .      S
C92   H106  1.091 .      S
C95   H107  1.060 .      S
C96   H108  1.081 .      S
C97   H109  1.081 1_554  S
C98   H110  1.078 1_554  S
N33   Zn14  2.111 1_554  S
H109  C97   1.081 1_556  S
H110  C98   1.078 1_556  S
C100  N34   1.422 .      S
C100  H111  1.097 1_554  S
C100  H112  1.098 .      S
C100  H113  1.078 .      S
N34   C101  1.421 1_655  S
N34   H114  1.038 .      S
C101  N34   1.421 1_455  S
C101  C102  1.437 .      S
C101  H115  1.099 1_554  S
C101  H116  1.097 .      S
C104  H117  1.067 .      S
C105  H118  1.064 .      S
C106  H119  1.072 .      S
C107  H120  1.069 1_554  S
N36   Zn17  2.189 1_554  S
H111  C100  1.097 1_556  S
H115  C101  1.099 1_556  S
H120  C107  1.069 1_556  S
C109  N37   1.443 .      S
C109  H121  1.106 .      S
C109  H122  1.107 .      S
C109  H123  1.107 .      S
N37   C110  1.450 .      S
N37   H124  1.040 .      S
C110  C111  1.475 .      S
C110  H125  1.091 .      S
C110  H126  1.097 .      S
C113  H127  1.058 .      S
C114  H128  1.081 .      S
C115  H129  1.081 .      S
C116  H130  1.072 .      S
C118  N40   1.447 .      S
C118  H131  1.103 .      S
C118  H132  1.104 1_545  S
C118  H133  1.093 .      S
N40   C119  1.444 .      S
N40   H134  1.040 .      S
C119  C120  1.464 .      S
C119  H135  1.104 .      S
C119  H136  1.083 1_545  S
N41   Zn15  2.170 1_545  S
C122  H137  1.046 .      S
C123  H138  1.081 .      S
C124  H139  1.081 .      S
C125  H140  1.070 .      S
H132  C118  1.104 1_565  S
H136  C119  1.083 1_565  S
C127  N43   1.437 .      S
C127  H141  1.084 1_565  S
C127  H142  1.105 1_565  S
C127  H143  1.098 .      S
N43   C128  1.440 .      S
N43   H144  1.043 .      S
C128  C129  1.466 .      S
C128  H145  1.099 .      S
C128  H146  1.107 .      S
C131  H147  1.079 .      S
C132  H148  1.081 .      S
C133  H149  1.081 .      S
C134  H150  1.073 1_554  S
N45   Zn18  2.108 1_554  S
H141  C127  1.084 1_545  S
H142  C127  1.105 1_545  S
H150  C134  1.073 1_556  S
C136  N46   1.453 .      S
C136  H151  1.109 .      S
C136  H152  1.109 .      S
C136  H153  1.109 .      S
N46   C137  1.454 .      S
N46   H154  1.043 .      S
C137  C138  1.491 .      S
C137  H155  1.107 .      S
C137  H156  1.108 .      S
C140  H157  1.045 .      S
C141  H158  1.063 .      S
C142  H159  1.058 1_565  S
C143  H160  1.055 .      S
H159  C142  1.058 1_545  S
C145  N49   1.442 .      S
C145  H161  1.106 .      S
C145  H162  1.109 .      S
C145  H163  1.098 .      S
N49   C146  1.434 .      S
N49   H164  1.036 .      S
C146  C147  1.464 .      S
C146  H165  1.101 .      S
C146  H166  1.105 .      S
C149  H167  1.075 1_545  S
C150  H168  1.078 .      S
C151  H169  1.079 .      S
C152  H170  1.064 .      S
H167  C149  1.075 1_565  S
C154  N52   1.459 .      S
C154  H171  1.108 .      S
C154  H172  1.106 .      S
C154  H173  1.099 .      S
N52   C155  1.459 .      S
N52   H174  1.035 .      S
C155  C156  1.458 .      S
C155  H175  1.099 .      S
C155  H176  1.103 .      S
C158  H177  1.078 .      S
C159  H178  1.081 .      S
C160  H179  1.081 .      S
C161  H180  1.075 .      S
C163  N55   1.450 .      S
C163  H181  1.100 .      S
C163  H182  1.106 .      S
C163  H183  1.106 .      S
N55   C164  1.445 .      S
N55   H184  1.030 .      S
C164  C165  1.486 .      S
C164  H185  1.098 .      S
C164  H186  1.100 .      S
C167  H187  1.073 .      S
C168  H188  1.081 .      S
C169  H189  1.081 .      S
C170  H190  1.080 .      S
C172  N58   1.455 .      S
C172  H191  1.106 .      S
C172  H192  1.109 .      S
C172  H193  1.108 .      S
N58   C173  1.458 .      S
N58   H194  1.042 .      S
C173  C174  1.476 .      S
C173  H195  1.088 .      S
C173  H196  1.108 .      S
C176  H197  1.045 .      S
C177  H198  1.067 .      S
C178  H199  1.052 .      S
C179  H200  1.042 .      S
C181  N61   1.454 .      S
C181  H201  1.109 .      S
C181  H202  1.106 .      S
C181  H203  1.108 1_554  S
N61   C182  1.456 1_554  S
N61   H204  1.034 1_554  S
C182  N61   1.456 1_556  S
C182  C183  1.495 .      S
C182  H205  1.105 .      S
C182  H206  1.091 1_556  S
C185  H207  1.075 .      S
C186  H208  1.079 .      S
C187  H209  1.081 .      S
C188  H210  1.080 .      S
H203  C181  1.108 1_556  S
H204  N61   1.034 1_556  S
H206  C182  1.091 1_554  S
C190  N64   1.444 .      S
C190  H211  1.107 1_556  S
C190  H212  1.087 1_565  S
C190  H213  1.095 .      S
N64   C191  1.427 .      S
N64   H214  1.032 1_556  S
C191  C192  1.429 .      S
C191  H215  1.087 .      S
C191  H216  1.103 .      S
N65   Zn14  2.193 1_565  S
C194  H217  1.054 .      S
C195  H218  1.046 .      S
C196  H219  1.080 .      S
C197  H220  1.055 .      S
H211  C190  1.107 1_554  S
H212  C190  1.087 1_545  S
H214  N64   1.032 1_554  S
C199  N67   1.444 .      S
C199  H221  1.099 1_655  S
C199  H222  1.094 1_655  S
C199  H223  1.071 .      S
N67   C200  1.442 1_565  S
N67   H224  1.044 .      S
C200  N67   1.442 1_545  S
C200  C201  1.442 .      S
C200  H225  1.076 .      S
C200  H226  1.102 .      S
N68   Zn22  2.143 1_655  S
C203  H227  1.080 .      S
C204  H228  1.081 .      S
C205  H229  1.081 .      S
C206  H230  1.074 .      S
H221  C199  1.099 1_455  S
H222  C199  1.094 1_455  S
C208  N70   1.455 .      S
C208  H231  1.108 .      S
C208  H232  1.109 .      S
C208  H233  1.109 .      S
N70   C209  1.452 .      S
N70   H234  1.044 .      S
C209  C210  1.487 .      S
C209  H235  1.103 .      S
C209  H236  1.099 .      S
N71   Zn15  2.061 1_455  S
C212  H237  1.073 .      S
C213  H238  1.081 1_565  S
C214  H239  1.081 1_565  S
C215  H240  1.071 .      S
H238  C213  1.081 1_545  S
H239  C214  1.081 1_545  S
C217  N73   1.453 .      S
C217  H241  1.109 .      S
C217  H242  1.103 .      S
C217  H243  1.108 .      S
N73   C218  1.452 .      S
N73   H244  1.042 .      S
C218  C219  1.491 1_655  S
C218  H245  1.107 .      S
C218  H246  1.099 .      S
C219  C218  1.491 1_455  S
N74   Zn15  2.115 1_455  S
C221  H247  1.077 .      S
C222  H248  1.077 .      S
C223  H249  1.077 .      S
C224  H250  1.070 .      S
N75   Zn5   2.122 1_554  S
C226  N76   1.456 .      S
C226  H251  1.104 .      S
C226  H252  1.106 .      S
C226  H253  1.097 .      S
N76   C227  1.449 1_545  S
N76   H254  1.035 .      S
C227  N76   1.449 1_565  S
C227  C228  1.494 .      S
C227  H255  1.096 .      S
C227  H256  1.103 .      S
C230  H257  1.063 .      S
C231  H258  1.081 .      S
C232  H259  1.080 .      S
C233  H260  1.077 .      S
C235  N79   1.451 .      S
C235  H261  1.098 .      S
C235  H262  1.107 1_545  S
C235  H263  1.109 1_545  S
N79   C236  1.456 .      S
N79   H264  1.038 1_545  S
C236  C237  1.440 .      S
C236  H265  1.102 1_545  S
C236  H266  1.085 .      S
C239  H267  1.074 .      S
C240  H268  1.059 .      S
C241  H269  1.081 .      S
C242  H270  1.078 .      S
N81   Zn16  2.045 1_545  S
H262  C235  1.107 1_565  S
H263  C235  1.109 1_565  S
H264  N79   1.038 1_565  S
H265  C236  1.102 1_565  S
C244  N82   1.451 .      S
C244  H271  1.108 .      S
C244  H272  1.104 .      S
C244  H273  1.099 .      S
N82   C245  1.455 .      S
N82   H274  1.039 .      S
C245  C246  1.497 .      S
C245  H275  1.103 .      S
C245  H276  1.098 .      S
C248  H277  1.076 .      S
C249  H278  1.081 .      S
C250  H279  1.081 .      S
C251  H280  1.074 .      S
C253  N85   1.449 .      S
C253  H281  1.102 .      S
C253  H282  1.095 .      S
C253  H283  1.107 .      S
N85   C254  1.443 .      S
N85   H284  1.033 .      S
C254  C255  1.474 .      S
C254  H285  1.094 .      S
C254  H286  1.101 .      S
C257  H287  1.072 1_455  S
C258  H288  1.081 1_455  S
C259  H289  1.081 .      S
C260  H290  1.060 .      S
H287  C257  1.072 1_655  S
H288  C258  1.081 1_655  S
C262  N88   1.409 1_554  S
C262  H291  1.095 1_455  S
C262  H292  1.069 .      S
C262  H293  1.088 .      S
N88   C262  1.409 1_556  S
N88   C263  1.433 .      S
N88   H294  1.042 .      S
C263  C264  1.402 .      S
C263  H295  1.097 1_556  S
C263  H296  1.101 1_556  S
C266  H297  1.075 .      S
C267  H298  1.074 .      S
C268  H299  1.067 .      S
C269  H300  1.048 .      S
N90   Zn17  2.273 1_565  S
H291  C262  1.095 1_655  S
H295  C263  1.097 1_554  S
H296  C263  1.101 1_554  S
C271  N91   1.442 .      S
C271  H301  1.100 .      S
C271  H302  1.104 .      S
C271  H303  1.093 .      S
N91   C272  1.447 .      S
N91   H304  1.039 .      S
C272  C273  1.454 1_565  S
C272  H305  1.095 .      S
C272  H306  1.092 .      S
C273  C272  1.454 1_545  S
C275  H307  1.061 .      S
C276  H308  1.081 1_556  S
C277  H309  1.081 .      S
C278  H310  1.073 .      S
H308  C276  1.081 1_554  S
C280  N94   1.452 .      S
C280  H311  1.108 .      S
C280  H312  1.105 .      S
C280  H313  1.098 1_556  S
N94   C281  1.454 .      S
N94   H314  1.044 .      S
C281  C282  1.489 .      S
C281  H315  1.099 .      S
C281  H316  1.105 .      S
C284  H317  1.069 .      S
C285  H318  1.081 .      S
C286  H319  1.081 .      S
C287  H320  1.069 .      S
H313  C280  1.098 1_554  S
C289  N97   1.453 .      S
C289  H321  1.109 .      S
C289  H322  1.109 .      S
C289  H323  1.109 .      S
N97   C290  1.453 .      S
N97   H324  1.040 .      S
C290  C291  1.501 .      S
C290  H325  1.085 .      S
C290  H326  1.086 .      S
C293  H327  1.075 .      S
C294  H328  1.081 .      S
C295  H329  1.081 .      S
C296  H330  1.074 .      S
C298  N100  1.442 .      S
C298  H331  1.098 .      S
C298  H332  1.096 .      S
C298  H333  1.100 .      S
N100  C299  1.435 .      S
N100  H334  1.040 .      S
C299  C300  1.480 .      S
C299  H335  1.107 .      S
C299  H336  1.104 .      S
N101  Zn19  2.177 1_554  S
C302  H337  1.059 .      S
C303  H338  1.075 1_554  S
C304  H339  1.081 .      S
C305  H340  1.061 .      S
H338  C303  1.075 1_556  S
C307  N103  1.447 1_545  S
C307  H341  1.106 .      S
C307  H342  1.084 1_545  S
C307  H343  1.079 .      S
N103  C307  1.447 1_565  S
N103  C308  1.456 .      S
N103  H344  1.038 1_565  S
C308  C309  1.465 1_554  S
C308  H345  1.099 1_565  S
C308  H346  1.093 .      S
C309  C308  1.465 1_556  S
C311  H347  1.047 .      S
C312  H348  1.080 .      S
C313  H349  1.071 .      S
C314  H350  1.064 .      S
N105  Zn19  2.103 1_565  S
H342  C307  1.084 1_565  S
H344  N103  1.038 1_545  S
H345  C308  1.099 1_545  S
C316  N106  1.451 1_565  S
C316  H351  1.099 .      S
C316  H352  1.107 .      S
C316  H353  1.102 1_565  S
N106  C316  1.451 1_545  S
N106  C317  1.445 1_545  S
N106  H354  1.043 .      S
C317  N106  1.445 1_565  S
C317  C318  1.467 1_565  S
C317  H355  1.090 .      S
C317  H356  1.101 .      S
C318  C317  1.467 1_545  S
C320  H357  1.075 .      S
C321  H358  1.081 .      S
C322  H359  1.081 .      S
C323  H360  1.073 .      S
H353  C316  1.102 1_545  S
C325  N109  1.453 1_655  S
C325  H361  1.108 .      S
C325  H362  1.109 .      S
C325  H363  1.110 .      S
N109  C325  1.453 1_455  S
N109  C326  1.452 .      S
N109  H364  1.043 .      S
C326  C327  1.475 .      S
C326  H365  1.104 .      S
C326  H366  1.098 .      S
C329  H367  1.047 .      S
C330  H368  1.057 .      S
C331  H369  1.070 .      S
C332  H370  1.060 .      S
C334  N112  1.457 .      S
C334  H371  1.106 .      S
C334  H372  1.109 .      S
C334  H373  1.109 .      S
N112  C335  1.429 .      S
N112  H374  1.036 .      S
C335  C336  1.484 .      S
C335  H375  1.097 .      S
C335  H376  1.104 .      S
C338  H377  1.071 .      S
C339  H378  1.081 .      S
C340  H379  1.081 .      S
C341  H380  1.080 .      S
C343  N115  1.442 .      S
C343  H381  1.105 .      S
C343  H382  1.106 .      S
C343  H383  1.100 .      S
N115  C344  1.452 .      S
N115  H384  1.037 .      S
C344  C345  1.476 .      S
C344  H385  1.100 .      S
C344  H386  1.107 .      S
C347  H387  1.053 .      S
C348  H388  1.081 .      S
C349  H389  1.081 .      S
C350  H390  1.066 .      S
C352  N118  1.452 1_565  S
C352  H391  1.103 .      S
C352  H392  1.103 .      S
C352  H393  1.109 .      S
N118  C352  1.452 1_545  S
N118  C353  1.444 .      S
N118  H394  1.037 .      S
C353  C354  1.462 .      S
C353  H395  1.096 .      S
C353  H396  1.096 1_545  S
N119  Zn28  2.189 1_545  S
C356  H397  1.069 .      S
C357  H398  1.071 .      S
C358  H399  1.070 .      S
C359  H400  1.078 .      S
H396  C353  1.096 1_565  S
C361  N121  1.433 .      S
C361  H401  1.107 .      S
C361  H402  1.097 .      S
C361  H403  1.081 .      S
N121  C362  1.436 .      S
N121  H404  1.039 .      S
C362  C363  1.429 .      S
C362  H405  1.108 .      S
C362  H406  1.100 .      S
N122  Zn22  2.128 1_565  S
C365  H407  1.066 .      S
C366  H408  1.081 .      S
C367  H409  1.081 .      S
C368  H410  1.046 .      S
C370  N124  1.453 .      S
C370  H411  1.106 .      S
C370  H412  1.102 .      S
C370  H413  1.097 .      S
N124  C371  1.444 .      S
N124  H414  1.043 .      S
C371  C372  1.490 .      S
C371  H415  1.102 .      S
C371  H416  1.085 .      S
C374  H417  1.071 .      S
C375  H418  1.081 .      S
C376  H419  1.081 .      S
C377  H420  1.074 .      S
C379  N127  1.448 .      S
C379  H421  1.107 .      S
C379  H422  1.105 .      S
C379  H423  1.095 .      S
N127  C380  1.445 .      S
N127  H424  1.044 .      S
C380  C381  1.443 .      S
C380  H425  1.085 .      S
C380  H426  1.093 .      S
C383  H427  1.076 .      S
C384  H428  1.072 .      S
C385  H429  1.046 .      S
C386  H430  1.075 .      S
C388  N130  1.448 .      S
C388  H431  1.109 .      S
C388  H432  1.101 .      S
C388  H433  1.100 .      S
N130  C389  1.458 .      S
N130  H434  1.041 .      S
C389  C390  1.468 .      S
C389  H435  1.108 .      S
C389  H436  1.106 .      S
C392  H437  1.075 .      S
C393  H438  1.066 .      S
C394  H439  1.076 .      S
C395  H440  1.053 .      S
C397  N133  1.452 .      S
C397  H441  1.108 .      S
C397  H442  1.108 .      S
C397  H443  1.105 .      S
N133  C398  1.438 .      S
N133  H444  1.033 .      S
C398  C399  1.490 .      S
C398  H445  1.101 .      S
C398  H446  1.104 .      S
C401  H447  1.072 .      S
C402  H448  1.081 .      S
C403  H449  1.077 .      S
C404  H450  1.066 .      S
C406  N136  1.440 .      S
C406  H451  1.102 .      S
C406  H452  1.101 .      S
C406  H453  1.089 .      S
N136  C407  1.443 .      S
N136  H454  1.030 .      S
C407  C408  1.469 .      S
C407  H455  1.093 .      S
C407  H456  1.107 .      S
C410  H457  1.076 .      S
C411  H458  1.068 .      S
C412  H459  1.080 .      S
C413  H460  1.077 .      S
C415  N139  1.459 .      S
C415  H461  1.105 .      S
C415  H462  1.109 .      S
C415  H463  1.107 .      S
N139  C416  1.447 .      S
N139  H464  1.039 .      S
C416  C417  1.495 .      S
C416  H465  1.105 .      S
C416  H466  1.101 .      S
C419  H467  1.081 .      S
C420  H468  1.081 .      S
C421  H469  1.081 .      S
C422  H470  1.079 .      S
C424  N142  1.452 .      S
C424  H471  1.108 .      S
C424  H472  1.107 .      S
C424  H473  1.108 .      S
N142  C425  1.450 .      S
N142  H474  1.044 .      S
C425  C426  1.490 .      S
C425  H475  1.107 .      S
C425  H476  1.096 .      S
C428  H477  1.065 .      S
C429  H478  1.081 .      S
C430  H479  1.081 .      S
C431  H480  1.071 .      S
C433  N145  1.454 .      S
C433  H481  1.104 .      S
C433  H482  1.108 .      S
C433  H483  1.109 .      S
N145  C434  1.449 .      S
N145  H484  1.040 .      S
C434  C435  1.488 .      S
C434  H485  1.098 .      S
C434  H486  1.102 .      S
C437  H487  1.069 .      S
C438  H488  1.048 1_545  S
C439  H489  1.056 1_545  S
C440  H490  1.070 .      S
H488  C438  1.048 1_565  S
H489  C439  1.056 1_565  S
C442  N148  1.451 .      S
C442  H491  1.109 .      S
C442  H492  1.101 .      S
C442  H493  1.102 .      S
N148  C443  1.456 .      S
N148  H494  1.043 .      S
C443  C444  1.479 .      S
C443  H495  1.106 .      S
C443  H496  1.105 .      S
C446  H497  1.076 .      S
C447  H498  1.081 .      S
C448  H499  1.081 .      S
C449  H500  1.077 .      S
C451  N151  1.453 .      S
C451  H501  1.098 .      S
C451  H502  1.102 .      S
C451  H503  1.104 .      S
N151  C452  1.450 .      S
N151  H504  1.034 .      S
C452  C453  1.434 .      S
C452  H505  1.103 .      S
C452  H506  1.107 .      S
C455  H507  1.033 .      S
C456  H508  1.069 .      S
C457  H509  1.075 .      S
C458  H510  1.069 .      S
C460  N154  1.462 .      S
C460  H511  1.081 .      S
C460  H512  1.107 .      S
C460  H513  1.067 1_565  S
N154  C461  1.461 .      S
N154  H514  1.033 .      S
C461  C462  1.433 .      S
C461  H515  1.107 .      S
C461  H516  1.088 .      S
C464  H517  1.059 .      S
C465  H518  1.081 .      S
C466  H519  1.079 .      S
C467  H520  1.069 .      S
N156  Zn8   2.107 1_565  S
H513  C460  1.067 1_545  S
C469  N157  1.450 .      S
C469  H521  1.108 .      S
C469  H522  1.106 .      S
C469  H523  1.102 .      S
N157  C470  1.447 .      S
N157  H524  1.034 .      S
C470  C471  1.497 .      S
C470  H525  1.103 .      S
C470  H526  1.094 .      S
C473  H527  1.048 .      S
C474  H528  1.081 .      S
C475  H529  1.081 .      S
C476  H530  1.066 .      S
C478  N160  1.454 1_655  S
C478  H531  1.109 .      S
C478  H532  1.109 1_545  S
C478  H533  1.109 .      S
N160  C478  1.454 1_455  S
N160  C479  1.456 .      S
N160  H534  1.042 1_455  S
C479  C480  1.484 .      S
C479  H535  1.093 .      S
C479  H536  1.101 1_545  S
N161  Zn27  2.154 1_545  S
C482  H537  1.067 .      S
C483  H538  1.058 1_455  S
C484  H539  1.081 1_455  S
C485  H540  1.073 .      S
H532  C478  1.109 1_565  S
H534  N160  1.042 1_655  S
H536  C479  1.101 1_565  S
H538  C483  1.058 1_655  S
H539  C484  1.081 1_655  S
C487  N163  1.452 .      S
C487  H541  1.108 .      S
C487  H542  1.108 .      S
C487  H543  1.106 .      S
N163  C488  1.453 .      S
N163  H544  1.040 1_545  S
C488  C489  1.471 1_545  S
C488  H545  1.102 .      S
C488  H546  1.095 .      S
C489  C488  1.471 1_565  S
C491  H547  1.075 .      S
C492  H548  1.081 .      S
C493  H549  1.077 .      S
C494  H550  1.073 .      S
H544  N163  1.040 1_565  S
C496  N166  1.456 .      S
C496  H551  1.103 .      S
C496  H552  1.087 .      S
C496  H553  1.108 .      S
N166  C497  1.458 .      S
N166  H554  1.041 .      S
C497  C498  1.486 .      S
C497  H555  1.096 .      S
C497  H556  1.108 .      S
N167  Zn7   2.096 1_554  S
C500  H557  1.080 1_554  S
C501  H558  1.068 .      S
C502  H559  1.060 .      S
C503  H560  1.075 .      S
H557  C500  1.080 1_556  S
C3    N2    1.394 .      A
C3    N3    1.376 .      A
N2    C4    1.353 .      A
C4    C5    1.373 .      A
C4    C9    1.370 .      A
C5    C6    1.385 .      A
C6    C7    1.390 .      A
C7    C8    1.383 .      A
C8    C9    1.372 .      A
C9    N3    1.344 .      A
C12   N5    1.370 .      A
C12   N6    1.393 .      A
N5    C13   1.347 .      A
C13   C14   1.369 .      A
C13   C18   1.355 .      A
C14   C15   1.375 .      A
C15   C16   1.383 .      A
C16   C17   1.379 .      A
C17   C18   1.368 .      A
C18   N6    1.343 .      A
C21   N8    1.387 .      A
C21   N9    1.382 .      A
N8    C22   1.348 .      A
C22   C23   1.374 .      A
C22   C27   1.371 .      A
C23   C24   1.381 .      A
C24   C25   1.385 .      A
C25   C26   1.382 .      A
C26   C27   1.376 .      A
C27   N9    1.353 .      A
C30   N11   1.382 .      A
C30   N12   1.382 .      A
N11   C31   1.347 .      A
C31   C32   1.363 .      A
C31   C36   1.361 .      A
C32   C33   1.382 .      A
C33   C34   1.387 .      A
C34   C35   1.384 .      A
C35   C36   1.376 .      A
C36   N12   1.349 .      A
C39   N14   1.384 .      A
C39   N15   1.401 .      A
N14   C40   1.344 1_455  A
C40   N14   1.344 1_655  A
C40   C41   1.371 .      A
C40   C45   1.377 1_655  A
C41   C42   1.384 .      A
C42   C43   1.391 .      A
C43   C44   1.386 .      A
C44   C45   1.372 1_655  A
C45   C40   1.377 1_455  A
C45   C44   1.372 1_455  A
C45   N15   1.355 .      A
C48   N17   1.402 .      A
C48   N18   1.392 .      A
N17   C49   1.334 .      A
C49   C50   1.367 1_455  A
C49   C54   1.366 .      A
C50   C49   1.367 1_655  A
C50   C51   1.367 .      A
C51   C52   1.371 1_655  A
C52   C51   1.371 1_455  A
C52   C53   1.383 .      A
C53   C54   1.370 .      A
C54   N18   1.362 .      A
C57   N20   1.376 .      A
C57   N21   1.375 .      A
N20   C58   1.363 .      A
C58   C59   1.380 .      A
C58   C63   1.352 .      A
C59   C60   1.374 .      A
C60   C61   1.373 .      A
C61   C62   1.380 .      A
C62   C63   1.367 .      A
C63   N21   1.338 .      A
C66   N23   1.403 .      A
C66   N24   1.382 .      A
N23   C67   1.347 .      A
C67   C68   1.374 .      A
C67   C72   1.363 .      A
C68   C69   1.382 .      A
C69   C70   1.385 .      A
C70   C71   1.382 .      A
C71   C72   1.364 .      A
C72   N24   1.345 .      A
C75   N26   1.394 .      A
C75   N27   1.387 .      A
N26   C76   1.329 .      A
C76   C77   1.358 .      A
C76   C81   1.363 .      A
C77   C78   1.354 .      A
C78   C79   1.365 .      A
C79   C80   1.391 .      A
C80   C81   1.362 .      A
C81   N27   1.348 .      A
C84   N29   1.392 .      A
C84   N30   1.404 .      A
N29   C85   1.345 .      A
C85   C86   1.364 .      A
C85   C90   1.371 .      A
C86   C87   1.381 .      A
C87   C88   1.384 .      A
C88   C89   1.382 .      A
C89   C90   1.368 .      A
C90   N30   1.351 .      A
C93   N32   1.383 .      A
C93   N33   1.379 .      A
N32   C94   1.364 .      A
C94   C95   1.370 .      A
C94   C99   1.374 .      A
C95   C96   1.384 .      A
C96   C97   1.385 .      A
C97   C98   1.379 .      A
C98   C99   1.373 .      A
C99   N33   1.341 .      A
C102  N35   1.398 .      A
C102  N36   1.389 .      A
N35   C103  1.340 .      A
C103  C104  1.357 .      A
C103  C108  1.373 .      A
C104  C105  1.368 .      A
C105  C106  1.387 .      A
C106  C107  1.373 .      A
C107  C108  1.358 .      A
C108  N36   1.340 .      A
C111  N38   1.391 .      A
C111  N39   1.373 .      A
N38   C112  1.351 .      A
C112  C113  1.366 1_455  A
C112  C117  1.359 .      A
C113  C112  1.366 1_655  A
C113  C114  1.380 .      A
C114  C115  1.382 1_655  A
C115  C114  1.382 1_455  A
C115  C116  1.380 .      A
C116  C117  1.380 .      A
C117  N39   1.350 .      A
C120  N41   1.389 1_455  A
C120  N42   1.374 .      A
N41   C120  1.389 1_655  A
N41   C121  1.353 .      A
C121  C122  1.363 .      A
C121  C126  1.358 .      A
C122  C123  1.385 .      A
C123  C124  1.379 .      A
C124  C125  1.378 .      A
C125  C126  1.362 .      A
C126  N42   1.335 1_655  A
N42   C126  1.335 1_455  A
C129  N44   1.386 .      A
C129  N45   1.378 .      A
N44   C130  1.345 .      A
C130  C131  1.372 .      A
C130  C135  1.370 .      A
C131  C132  1.382 .      A
C132  C133  1.389 .      A
C133  C134  1.386 .      A
C134  C135  1.372 .      A
C135  N45   1.352 .      A
C138  N47   1.390 .      A
C138  N48   1.384 .      A
N47   C139  1.327 .      A
C139  C140  1.329 .      A
C139  C144  1.327 .      A
C140  C141  1.361 1_565  A
C141  C140  1.361 1_545  A
C141  C142  1.367 1_545  A
C142  C141  1.367 1_565  A
C142  C143  1.356 .      A
C143  C144  1.360 .      A
C144  N48   1.323 .      A
C147  N50   1.389 .      A
C147  N51   1.387 .      A
N50   C148  1.340 .      A
C148  C149  1.368 1_565  A
C148  C153  1.363 .      A
C149  C148  1.368 1_545  A
C149  C150  1.381 .      A
C150  C151  1.381 .      A
C151  C152  1.380 .      A
C152  C153  1.373 1_545  A
C153  C152  1.373 1_565  A
C153  N51   1.356 .      A
C156  N53   1.387 .      A
C156  N54   1.371 .      A
N53   C157  1.349 .      A
C157  C158  1.375 .      A
C157  C162  1.365 .      A
C158  C159  1.382 .      A
C159  C160  1.386 .      A
C160  C161  1.383 .      A
C161  C162  1.366 .      A
C162  N54   1.347 .      A
C165  N56   1.388 .      A
C165  N57   1.391 .      A
N56   C166  1.352 .      A
C166  C167  1.370 .      A
C166  C171  1.372 .      A
C167  C168  1.386 .      A
C168  C169  1.392 .      A
C169  C170  1.385 .      A
C170  C171  1.371 .      A
C171  N57   1.341 .      A
C174  N59   1.390 .      A
C174  N60   1.402 .      A
N59   C175  1.313 .      A
C175  C176  1.326 .      A
C175  C180  1.333 .      A
C176  C177  1.354 .      A
C177  C178  1.368 .      A
C178  C179  1.362 .      A
C179  C180  1.334 .      A
C180  N60   1.331 .      A
C183  N62   1.367 .      A
C183  N63   1.386 .      A
N62   C184  1.352 1_545  A
C184  N62   1.352 1_565  A
C184  C185  1.371 .      A
C184  C189  1.352 .      A
C185  C186  1.386 .      A
C186  C187  1.387 .      A
C187  C188  1.380 .      A
C188  C189  1.374 .      A
C189  N63   1.340 1_565  A
N63   C189  1.340 1_545  A
C192  N65   1.381 .      A
C192  N66   1.383 .      A
N65   C193  1.362 .      A
C193  C194  1.344 .      A
C193  C198  1.358 .      A
C194  C195  1.382 .      A
C195  C196  1.363 .      A
C196  C197  1.346 .      A
C197  C198  1.357 .      A
C198  N66   1.308 .      A
C201  N68   1.386 .      A
C201  N69   1.386 .      A
N68   C202  1.347 .      A
C202  C203  1.374 .      A
C202  C207  1.372 .      A
C203  C204  1.382 .      A
C204  C205  1.388 .      A
C205  C206  1.385 .      A
C206  C207  1.376 .      A
C207  N69   1.359 .      A
C210  N71   1.377 .      A
C210  N72   1.376 .      A
N71   C211  1.350 1_455  A
C211  N71   1.350 1_655  A
C211  C212  1.376 .      A
C211  C216  1.354 1_655  A
C212  C213  1.384 .      A
C213  C214  1.387 .      A
C214  C215  1.382 .      A
C215  C216  1.367 1_655  A
C216  C211  1.354 1_455  A
C216  C215  1.367 1_455  A
C216  N72   1.346 .      A
C219  N74   1.393 .      A
C219  N75   1.393 .      A
N74   C220  1.341 .      A
C220  C221  1.364 .      A
C220  C225  1.362 .      A
C221  C222  1.378 .      A
C222  C223  1.386 .      A
C223  C224  1.376 .      A
C224  C225  1.367 .      A
C225  N75   1.344 .      A
C228  N77   1.375 .      A
C228  N78   1.391 .      A
N77   C229  1.343 .      A
C229  C230  1.365 .      A
C229  C234  1.349 .      A
C230  C231  1.381 .      A
C231  C232  1.387 .      A
C232  C233  1.378 .      A
C233  C234  1.362 .      A
C234  N78   1.335 .      A
C237  N80   1.397 .      A
C237  N81   1.363 .      A
N80   C238  1.358 .      A
C238  C239  1.356 .      A
C238  C243  1.366 .      A
C239  C240  1.394 .      A
C240  C241  1.378 .      A
C241  C242  1.361 .      A
C242  C243  1.359 .      A
C243  N81   1.319 .      A
C246  N83   1.397 .      A
C246  N84   1.391 .      A
N83   C247  1.349 .      A
C247  C248  1.371 .      A
C247  C252  1.374 .      A
C248  C249  1.383 .      A
C249  C250  1.387 .      A
C250  C251  1.382 .      A
C251  C252  1.375 .      A
C252  N84   1.349 .      A
C255  N86   1.379 1_565  A
C255  N87   1.384 1_565  A
N86   C255  1.379 1_545  A
N86   C256  1.341 .      A
C256  C257  1.373 .      A
C256  C261  1.357 .      A
C257  C258  1.380 .      A
C258  C259  1.385 .      A
C259  C260  1.383 .      A
C260  C261  1.370 .      A
C261  N87   1.354 .      A
N87   C255  1.384 1_545  A
C264  N89   1.388 .      A
C264  N90   1.391 .      A
N89   C265  1.316 .      A
C265  C266  1.362 .      A
C265  C270  1.370 .      A
C266  C267  1.356 .      A
C267  C268  1.376 .      A
C268  C269  1.376 .      A
C269  C270  1.361 .      A
C270  N90   1.375 .      A
C273  N92   1.386 .      A
C273  N93   1.373 .      A
N92   C274  1.364 .      A
C274  C275  1.377 .      A
C274  C279  1.367 .      A
C275  C276  1.383 .      A
C276  C277  1.383 .      A
C277  C278  1.379 .      A
C278  C279  1.368 .      A
C279  N93   1.335 .      A
C282  N95   1.397 .      A
C282  N96   1.406 .      A
N95   C283  1.342 .      A
C283  C284  1.361 .      A
C283  C288  1.370 .      A
C284  C285  1.382 .      A
C285  C286  1.389 .      A
C286  C287  1.385 .      A
C287  C288  1.369 .      A
C288  N96   1.351 .      A
C291  N98   1.386 .      A
C291  N99   1.373 .      A
N98   C292  1.341 .      A
C292  C293  1.371 .      A
C292  C297  1.362 .      A
C293  C294  1.382 .      A
C294  C295  1.387 .      A
C295  C296  1.385 .      A
C296  C297  1.375 .      A
C297  N99   1.348 .      A
C300  N101  1.402 .      A
C300  N102  1.379 .      A
N101  C301  1.346 .      A
C301  C302  1.364 1_554  A
C301  C306  1.351 .      A
C302  C301  1.364 1_556  A
C302  C303  1.374 1_556  A
C303  C302  1.374 1_554  A
C303  C304  1.379 .      A
C304  C305  1.379 .      A
C305  C306  1.359 .      A
C306  N102  1.342 .      A
C309  N104  1.387 .      A
C309  N105  1.376 .      A
N104  C310  1.348 .      A
C310  C311  1.367 .      A
C310  C315  1.358 .      A
C311  C312  1.370 .      A
C312  C313  1.374 .      A
C313  C314  1.380 .      A
C314  C315  1.368 .      A
C315  N105  1.348 .      A
C318  N107  1.380 .      A
C318  N108  1.367 .      A
N107  C319  1.353 .      A
C319  C320  1.377 .      A
C319  C324  1.361 .      A
C320  C321  1.383 .      A
C321  C322  1.386 .      A
C322  C323  1.381 .      A
C323  C324  1.375 .      A
C324  N108  1.348 .      A
C327  N110  1.402 .      A
C327  N111  1.401 .      A
N110  C328  1.342 .      A
C328  C329  1.337 .      A
C328  C333  1.359 .      A
C329  C330  1.351 .      A
C330  C331  1.372 .      A
C331  C332  1.364 .      A
C332  C333  1.366 .      A
C333  N111  1.330 .      A
C336  N113  1.392 .      A
C336  N114  1.381 .      A
N113  C337  1.361 .      A
C337  C338  1.376 .      A
C337  C342  1.362 .      A
C338  C339  1.385 1_455  A
C339  C338  1.385 1_655  A
C339  C340  1.388 .      A
C340  C341  1.383 1_655  A
C341  C340  1.383 1_455  A
C341  C342  1.371 .      A
C342  N114  1.336 .      A
C345  N116  1.390 .      A
C345  N117  1.394 .      A
N116  C346  1.367 .      A
C346  C347  1.376 .      A
C346  C351  1.364 .      A
C347  C348  1.382 .      A
C348  C349  1.379 .      A
C349  C350  1.376 .      A
C350  C351  1.371 .      A
C351  N117  1.336 .      A
C354  N119  1.394 .      A
C354  N120  1.404 .      A
N119  C355  1.336 .      A
C355  C356  1.350 .      A
C355  C360  1.369 .      A
C356  C357  1.374 .      A
C357  C358  1.379 .      A
C358  C359  1.379 .      A
C359  C360  1.360 .      A
C360  N120  1.343 .      A
C363  N122  1.382 .      A
C363  N123  1.387 .      A
N122  C364  1.340 1_455  A
C364  N122  1.340 1_655  A
C364  C365  1.374 .      A
C364  C369  1.371 1_655  A
C365  C366  1.380 .      A
C366  C367  1.382 .      A
C367  C368  1.382 1_655  A
C368  C367  1.382 1_455  A
C368  C369  1.360 .      A
C369  C364  1.371 1_455  A
C369  N123  1.361 .      A
C372  N125  1.393 .      A
C372  N126  1.385 .      A
N125  C373  1.356 1_455  A
C373  N125  1.356 1_655  A
C373  C374  1.373 .      A
C373  C378  1.366 1_655  A
C374  C375  1.384 .      A
C375  C376  1.386 .      A
C376  C377  1.380 .      A
C377  C378  1.372 1_655  A
C378  C373  1.366 1_455  A
C378  C377  1.372 1_455  A
C378  N126  1.341 .      A
C381  N128  1.376 .      A
C381  N129  1.373 .      A
N128  C382  1.328 .      A
C382  C383  1.352 .      A
C382  C387  1.358 .      A
C383  C384  1.364 .      A
C384  C385  1.388 .      A
C385  C386  1.358 .      A
C386  C387  1.345 .      A
C387  N129  1.328 .      A
C390  N131  1.390 .      A
C390  N132  1.382 .      A
N131  C391  1.324 .      A
C391  C392  1.350 .      A
C391  C396  1.348 .      A
C392  C393  1.364 .      A
C393  C394  1.377 .      A
C394  C395  1.377 .      A
C395  C396  1.356 .      A
C396  N132  1.344 .      A
C399  N134  1.378 .      A
C399  N135  1.395 .      A
N134  C400  1.336 .      A
C400  C401  1.368 .      A
C400  C405  1.357 .      A
C401  C402  1.380 .      A
C402  C403  1.387 .      A
C403  C404  1.386 .      A
C404  C405  1.358 .      A
C405  N135  1.344 .      A
C408  N137  1.391 .      A
C408  N138  1.387 .      A
N137  C409  1.336 .      A
C409  C410  1.369 .      A
C409  C414  1.353 .      A
C410  C411  1.379 .      A
C411  C412  1.376 .      A
C412  C413  1.381 .      A
C413  C414  1.334 .      A
C414  N138  1.335 .      A
C417  N140  1.376 .      A
C417  N141  1.374 .      A
N140  C418  1.338 .      A
C418  C419  1.370 .      A
C418  C423  1.359 .      A
C419  C420  1.384 .      A
C420  C421  1.391 .      A
C421  C422  1.386 .      A
C422  C423  1.374 .      A
C423  N141  1.350 .      A
C426  N143  1.378 .      A
C426  N144  1.382 .      A
N143  C427  1.347 .      A
C427  C428  1.366 .      A
C427  C432  1.359 .      A
C428  C429  1.383 .      A
C429  C430  1.388 .      A
C430  C431  1.382 .      A
C431  C432  1.372 .      A
C432  N144  1.342 .      A
C435  N146  1.388 .      A
C435  N147  1.390 .      A
N146  C436  1.322 .      A
C436  C437  1.343 .      A
C436  C441  1.367 .      A
C437  C438  1.354 .      A
C438  C439  1.353 .      A
C439  C440  1.368 .      A
C440  C441  1.350 .      A
C441  N147  1.330 .      A
C444  N149  1.389 .      A
C444  N150  1.387 .      A
N149  C445  1.340 .      A
C445  C446  1.372 .      A
C445  C450  1.363 .      A
C446  C447  1.382 .      A
C447  C448  1.389 .      A
C448  C449  1.384 .      A
C449  C450  1.377 .      A
C450  N150  1.357 .      A
C453  N152  1.393 .      A
C453  N153  1.385 .      A
N152  C454  1.358 .      A
C454  C455  1.350 .      A
C454  C459  1.356 .      A
C455  C456  1.368 .      A
C456  C457  1.375 .      A
C457  C458  1.364 .      A
C458  C459  1.357 .      A
C459  N153  1.323 .      A
C462  N155  1.379 .      A
C462  N156  1.374 .      A
N155  C463  1.353 .      A
C463  C464  1.362 .      A
C463  C468  1.376 .      A
C464  C465  1.378 .      A
C465  C466  1.382 .      A
C466  C467  1.381 .      A
C467  C468  1.375 .      A
C468  N156  1.350 .      A
C471  N158  1.390 .      A
C471  N159  1.389 .      A
N158  C472  1.347 .      A
C472  C473  1.355 .      A
C472  C477  1.359 .      A
C473  C474  1.379 1_455  A
C474  C473  1.379 1_655  A
C474  C475  1.382 .      A
C475  C476  1.380 1_655  A
C476  C475  1.380 1_455  A
C476  C477  1.374 .      A
C477  N159  1.345 .      A
C480  N161  1.388 .      A
C480  N162  1.379 .      A
N161  C481  1.350 .      A
C481  C482  1.363 .      A
C481  C486  1.365 .      A
C482  C483  1.376 .      A
C483  C484  1.382 .      A
C484  C485  1.374 .      A
C485  C486  1.375 .      A
C486  N162  1.340 .      A
C489  N164  1.384 .      A
C489  N165  1.395 .      A
N164  C490  1.342 .      A
C490  C491  1.368 .      A
C490  C495  1.367 .      A
C491  C492  1.378 .      A
C492  C493  1.384 .      A
C493  C494  1.387 .      A
C494  C495  1.375 .      A
C495  N165  1.354 .      A
C498  N167  1.382 .      A
C498  N168  1.401 .      A
N167  C499  1.345 .      A
C499  C500  1.369 .      A
C499  C504  1.362 .      A
C500  C501  1.384 .      A
C501  C502  1.384 .      A
C502  C503  1.363 .      A
C503  C504  1.356 .      A
C504  N168  1.331 .      A
