data_str_m1_o12014_AFY
_audit_creation_date              2015-10-01T06:34:44-0700
_symmetry_space_group_name_H-M    P1
_symmetry_Int_Tables_number       1
_space_group_crystal_system       triclinic
loop_
_symmetry_equiv_pos_as_xyz
  x,y,z
_cell_length_a                    27.1429500
_cell_length_b                    26.6056787
_cell_length_c                    18.1258957
_cell_angle_alpha                 86.5414348
_cell_angle_beta                  95.8207571
_cell_angle_gamma                 117.042189
_cell_volume                      11597.0557639

loop_
_atom_site_label
_atom_site_type_symbol
_atom_site_description
_atom_site_fract_x
_atom_site_fract_y
_atom_site_fract_z
_atom_type_partial_charge
Zn1   Zn    Zn3+2 0.381819 0.780857 0.745687 0.000000
Zn2   Zn    Zn3+2 0.579350 0.167079 0.754900 0.000000
Zn3   Zn    Zn3+2 0.569620 0.967698 0.555162 0.000000
Zn4   Zn    Zn3+2 0.184915 0.975101 0.724539 0.000000
Zn5   Zn    Zn3+2 0.380535 0.170023 0.537404 0.000000
Zn6   Zn    Zn3+2 0.180663 0.784464 0.527807 0.000000
Zn7   Zn    Zn3+2 0.707069 0.629988 0.338008 0.000000
Zn8   Zn    Zn3+2 0.371282 0.977876 0.327104 0.000000
Zn9   Zn    Zn3+2 0.736224 0.643115 0.957140 0.000000
Zn10  Zn    Zn3+2 0.381971 0.975448 0.956089 0.000000
Zn11  Zn    Zn3+2 0.708538 0.834502 0.540268 0.000000
Zn12  Zn    Zn3+2 0.522897 0.442290 0.576442 0.000000
Zn13  Zn    Zn3+2 0.526330 0.651873 0.739986 0.000000
Zn14  Zn    Zn3+2 0.914503 0.628628 0.558331 0.000000
Zn15  Zn    Zn3+2 0.731126 0.436558 0.771521 0.000000
Zn16  Zn    Zn3+2 0.914756 0.831961 0.743058 0.000000
C1    C     C_3   0.562107 0.922328 0.762563 0.000000
C2    C     C_3   0.505243 0.913683 0.729847 0.000000
C3    C     C_3   0.506683 0.966265 0.698331 0.000000
C4    C     C_R   0.484328 0.877201 0.666880 0.000000
N1    N     N_R   0.507280 0.892023 0.599542 0.000000
C5    C     C_R   0.472601 0.846951 0.558433 0.000000
C6    C     C_R   0.467714 0.842647 0.483282 0.000000
C7    C     C_R   0.427933 0.792916 0.451681 0.000000
C8    C     C_R   0.391920 0.749529 0.495352 0.000000
C9    C     C_R   0.394315 0.756687 0.570905 0.000000
C10   C     C_R   0.433848 0.806778 0.600252 0.000000
N2    N     N_R   0.438229 0.825894 0.668836 0.000000
C11   C     C_2   0.348866 0.698060 0.460487 0.000000
O1    O     O_2   0.352156 0.687069 0.397458 0.000000
O2    O     O_2   0.304235 0.663904 0.496398 0.000000
H1    H     H_    0.587495 0.924615 0.717593 0.000000
H2    H     H_    0.582713 0.960456 0.796830 0.000000
H3    H     H_    0.558601 0.887689 0.801223 0.000000
H4    H     H_    0.476227 0.895679 0.772594 0.000000
H5    H     H_    0.465054 0.962209 0.690327 0.000000
H6    H     H_    0.537311 0.999827 0.731446 0.000000
H7    H     H_    0.518907 0.973986 0.642850 0.000000
H8    H     H_    0.493416 0.877380 0.449401 0.000000
H9    H     H_    0.424611 0.788796 0.392239 0.000000
H10   H     H_    0.365924 0.724461 0.605617 0.000000
H11   H     H_    0.274621 0.631886 0.471059 0.000000
C12   C     C_3   0.347810 0.880661 0.682750 0.000000
C13   C     C_3   0.309774 0.846902 0.618945 0.000000
C14   C     C_3   0.340517 0.848400 0.554403 0.000000
C15   C     C_R   0.280279 0.787275 0.637648 0.000000
N3    N     N_R   0.303423 0.756439 0.679547 0.000000
C16   C     C_R   0.266333 0.703244 0.659921 0.000000
C17   C     C_R   0.268488 0.654104 0.680171 0.000000
C18   C     C_R   0.227669 0.604149 0.650863 0.000000
C19   C     C_R   0.190563 0.604725 0.592536 0.000000
C20   C     C_R   0.190537 0.655372 0.569640 0.000000
C21   C     C_R   0.225453 0.703065 0.608860 0.000000
N4    N     N_R   0.231218 0.755705 0.596263 0.000000
C22   C     C_2   0.153953 0.552353 0.553060 0.000000
O3    O     O_2   0.147713 0.506905 0.579869 0.000000
O4    O     O_2   0.128655 0.554306 0.485901 0.000000
H12   H     H_    0.372845 0.860698 0.708577 0.000000
H13   H     H_    0.375984 0.922257 0.661068 0.000000
H14   H     H_    0.323105 0.885455 0.724265 0.000000
H15   H     H_    0.279486 0.863292 0.601003 0.000000
H16   H     H_    0.324771 0.805409 0.532734 0.000000
H17   H     H_    0.335022 0.875308 0.510036 0.000000
H18   H     H_    0.383908 0.864095 0.572965 0.000000
H19   H     H_    0.301823 0.654321 0.715756 0.000000
H20   H     H_    0.228492 0.565139 0.669300 0.000000
H21   H     H_    0.163312 0.657545 0.523267 0.000000
H22   H     H_    0.105083 0.519794 0.459805 0.000000
C23   C     C_3   0.671388 0.171868 0.594503 0.000000
C24   C     C_3   0.612019 0.129260 0.574856 0.000000
C25   C     C_3   0.609372 0.107277 0.499452 0.000000
C26   C     C_R   0.596656 0.087407 0.636780 0.000000
N5    N     N_R   0.608301 0.041873 0.632391 0.000000
C27   C     C_R   0.638798 0.046719 0.698024 0.000000
C28   C     C_R   0.672095 0.021244 0.719893 0.000000
C29   C     C_R   0.699880 0.032656 0.790063 0.000000
C30   C     C_R   0.695504 0.070242 0.836281 0.000000
C31   C     C_R   0.663253 0.097204 0.812214 0.000000
C32   C     C_R   0.635597 0.085053 0.742960 0.000000
N6    N     N_R   0.605120 0.109090 0.707760 0.000000
C33   C     C_2   0.725672 0.082001 0.910166 0.000000
O5    O     O_2   0.754454 0.058854 0.931478 0.000000
O6    O     O_2   0.721682 0.118380 0.954861 0.000000
H23   H     H_    0.696992 0.149561 0.608859 0.000000
H24   H     H_    0.688806 0.201548 0.548175 0.000000
H25   H     H_    0.673068 0.195247 0.643345 0.000000
H26   H     H_    0.582191 0.145701 0.570266 0.000000
H27   H     H_    0.566630 0.090584 0.474058 0.000000
H28   H     H_    0.635242 0.141771 0.462164 0.000000
H29   H     H_    0.624146 0.075328 0.503987 0.000000
H30   H     H_    0.675948 0.992339 0.684335 0.000000
H31   H     H_    0.725242 0.011860 0.808321 0.000000
H32   H     H_    0.660484 0.127611 0.845938 0.000000
H33   H     H_    0.741536 0.125985 0.003450 0.000000
C34   C     C_3   0.394570 0.155084 0.724096 0.000000
C35   C     C_3   0.446856 0.149202 0.726674 0.000000
C36   C     C_3   0.434450 0.089637 0.728574 0.000000
C37   C     C_R   0.476897 0.169267 0.661321 0.000000
N7    N     N_R   0.454364 0.178149 0.593330 0.000000
C38   C     C_R   0.500194 0.207788 0.557785 0.000000
C39   C     C_R   0.502640 0.232670 0.489657 0.000000
C40   C     C_R   0.551259 0.251855 0.455498 0.000000
C41   C     C_R   0.599320 0.256111 0.495494 0.000000
C42   C     C_R   0.597967 0.241820 0.571174 0.000000
C43   C     C_R   0.546708 0.212941 0.599718 0.000000
N8    N     N_R   0.533126 0.186581 0.666482 0.000000
C44   C     C_2   0.650539 0.278807 0.456783 0.000000
O7    O     O_2   0.648367 0.286688 0.389834 0.000000
O8    O     O_2   0.700013 0.291747 0.494038 0.000000
H34   H     H_    0.360728 0.112856 0.724721 0.000000
H35   H     H_    0.395080 0.177991 0.773478 0.000000
H36   H     H_    0.387627 0.175844 0.673432 0.000000
H37   H     H_    0.474159 0.172965 0.774296 0.000000
H38   H     H_    0.474087 0.088511 0.726487 0.000000
H39   H     H_    0.411354 0.068129 0.776792 0.000000
H40   H     H_    0.412765 0.070619 0.676277 0.000000
H41   H     H_    0.466212 0.232323 0.460766 0.000000
H42   H     H_    0.551143 0.263723 0.397716 0.000000
H43   H     H_    0.634882 0.249210 0.605481 0.000000
H44   H     H_    0.733161 0.306819 0.467758 0.000000
C45   C     C_3   0.309898 0.994281 0.676719 0.000000
C46   C     C_3   0.308216 0.031690 0.612085 0.000000
C47   C     C_3   0.277092 0.998170 0.546057 0.000000
C48   C     C_R   0.283617 0.068533 0.627390 0.000000
N9    N     N_R   0.234674 0.051315 0.662476 0.000000
C49   C     C_R   0.223208 0.095145 0.645146 0.000000
C50   C     C_R   0.177277 0.100014 0.661067 0.000000
C51   C     C_R   0.171369 0.146743 0.632984 0.000000
C52   C     C_R   0.210540 0.186974 0.588856 0.000000
C53   C     C_R   0.256963 0.181344 0.573706 0.000000
C54   C     C_R   0.263280 0.135889 0.604138 0.000000
N10   N     N_R   0.304231 0.121812 0.594423 0.000000
C55   C     C_2   0.202567 0.235308 0.557864 0.000000
O9    O     O_2   0.161971 0.240603 0.570786 0.000000
O10   O     O_2   0.240024 0.274058 0.514938 0.000000
H45   H     H_    0.269440 0.959282 0.686032 0.000000
H46   H     H_    0.338906 0.977889 0.666591 0.000000
H47   H     H_    0.325290 0.019423 0.726555 0.000000
H48   H     H_    0.349923 0.059394 0.594703 0.000000
H49   H     H_    0.304260 0.012137 0.500475 0.000000
H50   H     H_    0.263057 0.952600 0.557498 0.000000
H51   H     H_    0.243253 0.009360 0.529177 0.000000
H52   H     H_    0.146300 0.068125 0.693637 0.000000
H53   H     H_    0.135196 0.150944 0.644818 0.000000
H54   H     H_    0.287291 0.211332 0.538657 0.000000
H55   H     H_    0.234667 0.305808 0.494672 0.000000
C56   C     C_3   0.104384 0.812148 0.728184 0.000000
C57   C     C_3   0.163675 0.829426 0.715397 0.000000
C58   C     C_3   0.168087 0.776624 0.707536 0.000000
C59   C     C_R   0.177154 0.865679 0.648366 0.000000
N11   N     N_R   0.163880 0.840683 0.580364 0.000000
C60   C     C_R   0.139070 0.868848 0.542238 0.000000
C61   C     C_R   0.101431 0.851928 0.481117 0.000000
C62   C     C_R   0.084806 0.890411 0.447139 0.000000
C63   C     C_R   0.106628 0.944865 0.474596 0.000000
C64   C     C_R   0.139253 0.957921 0.541346 0.000000
C65   C     C_R   0.150561 0.916743 0.577398 0.000000
N12   N     N_R   0.172176 0.915151 0.647392 0.000000
C66   C     C_2   0.094195 0.987914 0.434524 0.000000
O11   O     O_2   0.074284 0.980487 0.370398 0.000000
O12   O     O_2   0.105679 0.036309 0.467916 0.000000
H56   H     H_    0.077395 0.787797 0.679965 0.000000
H57   H     H_    0.093476 0.785755 0.779292 0.000000
H58   H     H_    0.098224 0.849904 0.733192 0.000000
H59   H     H_    0.192788 0.852324 0.761073 0.000000
H60   H     H_    0.211803 0.790287 0.707247 0.000000
H61   H     H_    0.153051 0.748475 0.756351 0.000000
H62   H     H_    0.145227 0.755167 0.656184 0.000000
H63   H     H_    0.084806 0.810074 0.460087 0.000000
H64   H     H_    0.057034 0.878482 0.397220 0.000000
H65   H     H_    0.155160 0.999239 0.564114 0.000000
H66   H     H_    0.097050 0.064356 0.441588 0.000000
C67   C     C_3   0.475710 0.035130 0.559907 0.000000
C68   C     C_3   0.439205 0.981955 0.520365 0.000000
C69   C     C_3   0.385463 0.984766 0.504388 0.000000
C70   C     C_R   0.466646 0.976886 0.454862 0.000000
N13   N     N_R   0.451144 0.987078 0.382110 0.000000
C71   C     C_R   0.500599 0.005862 0.351554 0.000000
C72   C     C_R   0.521669 0.049673 0.301616 0.000000
C73   C     C_R   0.575384 0.070228 0.282244 0.000000
C74   C     C_R   0.611169 0.052589 0.321227 0.000000
C75   C     C_R   0.593381 0.018681 0.383155 0.000000
C76   C     C_R   0.538744 0.997195 0.398177 0.000000
N14   N     N_R   0.519696 0.979912 0.465006 0.000000
C77   C     C_2   0.669298 0.076236 0.304012 0.000000
O13   O     O_2   0.685612 0.109294 0.252075 0.000000
O14   O     O_2   0.704753 0.061009 0.344864 0.000000
H67   H     H_    0.479411 0.073385 0.529417 0.000000
H68   H     H_    0.461757 0.034129 0.615314 0.000000
H69   H     H_    0.515001 0.034973 0.563611 0.000000
H70   H     H_    0.435314 0.948185 0.559824 0.000000
H71   H     H_    0.356553 0.959220 0.545642 0.000000
H72   H     H_    0.392384 0.028175 0.511828 0.000000
H73   H     H_    0.367933 0.972154 0.448620 0.000000
H74   H     H_    0.498850 0.072248 0.282880 0.000000
H75   H     H_    0.589900 0.103069 0.240167 0.000000
H76   H     H_    0.623245 0.015155 0.423647 0.000000
H77   H     H_    0.742905 0.076450 0.333192 0.000000
C78   C     C_3   0.464232 0.949059 0.188611 0.000000
C79   C     C_3   0.454473 0.997265 0.152626 0.000000
C80   C     C_3   0.487199 0.023802 0.086532 0.000000
C81   C     C_R   0.394867 0.980163 0.142683 0.000000
N15   N     N_R   0.366381 0.976766 0.073265 0.000000
C82   C     C_R   0.316003 0.966182 0.094559 0.000000
C83   C     C_R   0.271433 0.968886 0.055035 0.000000
C84   C     C_R   0.220419 0.941251 0.082217 0.000000
C85   C     C_R   0.214800 0.907370 0.144026 0.000000
C86   C     C_R   0.261938 0.914799 0.189715 0.000000
C87   C     C_R   0.312614 0.954288 0.168227 0.000000
N16   N     N_R   0.363194 0.969074 0.203931 0.000000
C88   C     C_2   0.159992 0.860475 0.152955 0.000000
O15   O     O_2   0.155741 0.814108 0.171692 0.000000
O16   O     O_2   0.113989 0.866596 0.131790 0.000000
H78   H     H_    0.444717 0.911500 0.153132 0.000000
H79   H     H_    0.509119 0.962163 0.200810 0.000000
H80   H     H_    0.444005 0.936207 0.241034 0.000000
H81   H     H_    0.468176 0.033055 0.186584 0.000000
H82   H     H_    0.500575 0.069684 0.086974 0.000000
H83   H     H_    0.525576 0.018572 0.091256 0.000000
H84   H     H_    0.462029 0.005624 0.035070 0.000000
H85   H     H_    0.272919 0.987563 0.002175 0.000000
H86   H     H_    0.184364 0.937536 0.047166 0.000000
H87   H     H_    0.259807 0.886566 0.235472 0.000000
H88   H     H_    0.077789 0.834801 0.134690 0.000000
C89   C     C_3   0.497398 0.131103 0.396791 0.000000
C90   C     C_3   0.446897 0.137330 0.366413 0.000000
C91   C     C_3   0.437826 0.130482 0.282326 0.000000
C92   C     C_R   0.396915 0.096826 0.404133 0.000000
N17   N     N_R   0.362163 0.051167 0.359878 0.000000
C93   C     C_R   0.317640 0.061224 0.346786 0.000000
C94   C     C_R   0.277915 0.043385 0.287980 0.000000
C95   C     C_R   0.237002 0.061217 0.283495 0.000000
C96   C     C_R   0.236257 0.096179 0.337309 0.000000
C97   C     C_R   0.278056 0.115432 0.394728 0.000000
C98   C     C_R   0.319862 0.099780 0.395587 0.000000
N18   N     N_R   0.368754 0.121418 0.437416 0.000000
C99   C     C_2   0.193047 0.115310 0.330990 0.000000
O17   O     O_2   0.156207 0.098655 0.280759 0.000000
O18   O     O_2   0.194179 0.151832 0.380200 0.000000
H89   H     H_    0.532435 0.153807 0.361640 0.000000
H90   H     H_    0.510315 0.145252 0.453931 0.000000
H91   H     H_    0.485116 0.086373 0.401170 0.000000
H92   H     H_    0.452541 0.180196 0.372162 0.000000
H93   H     H_    0.476163 0.160427 0.256864 0.000000
H94   H     H_    0.426813 0.087363 0.264574 0.000000
H95   H     H_    0.404310 0.141634 0.260502 0.000000
H96   H     H_    0.278988 0.017371 0.245652 0.000000
H97   H     H_    0.205592 0.047472 0.237387 0.000000
H98   H     H_    0.280073 0.144881 0.434712 0.000000
H99   H     H_    0.165885 0.164603 0.375654 0.000000
C100  C     C_3   0.167656 0.856309 0.331314 0.000000
C101  C     C_3   0.219533 0.906269 0.361355 0.000000
C102  C     C_3   0.205652 0.944839 0.399349 0.000000
C103  C     C_R   0.256859 0.886826 0.406296 0.000000
N19   N     N_R   0.232544 0.831427 0.436017 0.000000
C104  C     C_R   0.260648 0.808899 0.404009 0.000000
C105  C     C_R   0.246681 0.752784 0.399099 0.000000
C106  C     C_R   0.273019 0.737661 0.349502 0.000000
C107  C     C_R   0.315619 0.778535 0.310517 0.000000
C108  C     C_R   0.332242 0.835374 0.321164 0.000000
C109  C     C_R   0.303068 0.849271 0.366586 0.000000
N20   N     N_R   0.305174 0.900450 0.371843 0.000000
C110  C     C_2   0.341388 0.761577 0.255781 0.000000
O19   O     O_2   0.323892 0.711902 0.241365 0.000000
O20   O     O_2   0.384060 0.800859 0.220498 0.000000
H100  H     H_    0.143596 0.830949 0.376279 0.000000
H101  H     H_    0.141480 0.870626 0.293939 0.000000
H102  H     H_    0.179683 0.828929 0.302081 0.000000
H103  H     H_    0.241799 0.931454 0.315087 0.000000
H104  H     H_    0.240516 0.985937 0.404871 0.000000
H105  H     H_    0.170701 0.949252 0.367918 0.000000
H106  H     H_    0.199350 0.928927 0.454592 0.000000
H107  H     H_    0.212868 0.720996 0.427567 0.000000
H108  H     H_    0.259315 0.693308 0.340784 0.000000
H109  H     H_    0.363526 0.867819 0.289833 0.000000
H110  H     H_    0.400740 0.789595 0.184285 0.000000
C111  C     C_3   0.859976 0.585631 0.870180 0.000000
C112  C     C_3   0.810453 0.593712 0.834984 0.000000
C113  C     C_3   0.810075 0.594248 0.753449 0.000000
C114  C     C_R   0.756537 0.550440 0.862030 0.000000
N21   N     N_R   0.751253 0.495962 0.865071 0.000000
C115  C     C_R   0.761458 0.491181 0.939344 0.000000
C116  C     C_R   0.798288 0.471518 0.969854 0.000000
C117  C     C_R   0.827581 0.491676 0.037278 0.000000
C118  C     C_R   0.820980 0.532039 0.074161 0.000000
C119  C     C_R   0.782616 0.550309 0.045379 0.000000
C120  C     C_R   0.756442 0.532824 0.976083 0.000000
N22   N     N_R   0.745631 0.567524 0.927102 0.000000
C121  C     C_2   0.859597 0.560951 0.137874 0.000000
O21   O     O_2   0.894341 0.546036 0.163093 0.000000
O22   O     O_2   0.857776 0.605217 0.167476 0.000000
H111  H     H_    0.857556 0.545429 0.853682 0.000000
H112  H     H_    0.899192 0.619580 0.853217 0.000000
H113  H     H_    0.862637 0.587145 0.931151 0.000000
H114  H     H_    0.816299 0.635211 0.850356 0.000000
H115  H     H_    0.784427 0.551735 0.734424 0.000000
H116  H     H_    0.793382 0.623251 0.731932 0.000000
H117  H     H_    0.851611 0.607876 0.735660 0.000000
H118  H     H_    0.809541 0.445954 0.937983 0.000000
H119  H     H_    0.858810 0.478582 0.057857 0.000000
H120  H     H_    0.780921 0.585213 0.069997 0.000000
H121  H     H_    0.882939 0.624280 0.209511 0.000000
C122  C     C_3   0.942073 0.780024 0.968574 0.000000
C123  C     C_3   0.897701 0.726267 0.932639 0.000000
C124  C     C_3   0.873327 0.685726 0.996368 0.000000
C125  C     C_R   0.854381 0.737743 0.884799 0.000000
N23   N     N_R   0.871831 0.788852 0.844130 0.000000
C126  C     C_R   0.836735 0.807430 0.864911 0.000000
C127  C     C_R   0.844098 0.861862 0.860610 0.000000
C128  C     C_R   0.808149 0.875135 0.894154 0.000000
C129  C     C_R   0.765194 0.833831 0.931536 0.000000
C130  C     C_R   0.757989 0.778518 0.934920 0.000000
C131  C     C_R   0.795477 0.766755 0.902963 0.000000
N24   N     N_R   0.802720 0.719719 0.913123 0.000000
C132  C     C_2   0.728949 0.849439 0.969474 0.000000
O23   O     O_2   0.732057 0.896559 0.960737 0.000000
O24   O     O_2   0.693235 0.812483 0.015756 0.000000
H122  H     H_    0.972974 0.805497 0.929509 0.000000
H123  H     H_    0.922802 0.804845 0.989039 0.000000
H124  H     H_    0.964574 0.768987 0.016202 0.000000
H125  H     H_    0.917756 0.708035 0.900791 0.000000
H126  H     H_    0.832566 0.651853 0.978573 0.000000
H127  H     H_    0.901456 0.666921 0.015903 0.000000
H128  H     H_    0.869857 0.708057 0.043502 0.000000
H129  H     H_    0.880295 0.894581 0.838650 0.000000
H130  H     H_    0.815210 0.918545 0.892899 0.000000
H131  H     H_    0.725350 0.746029 0.964533 0.000000
H132  H     H_    0.669952 0.823198 0.041247 0.000000
C133  C     C_3   0.580039 0.700168 0.967320 0.000000
C134  C     C_3   0.593015 0.650944 0.963992 0.000000
C135  C     C_3   0.540490 0.596370 0.972918 0.000000
C136  C     C_R   0.616344 0.651704 0.892512 0.000000
N25   N     N_R   0.588597 0.651591 0.822270 0.000000
C137  C     C_R   0.622614 0.646414 0.778610 0.000000
C138  C     C_R   0.614157 0.640245 0.703379 0.000000
C139  C     C_R   0.647070 0.627644 0.667348 0.000000
C140  C     C_R   0.680852 0.610454 0.708568 0.000000
C141  C     C_R   0.696636 0.625174 0.782234 0.000000
C142  C     C_R   0.666145 0.642997 0.817351 0.000000
N26   N     N_R   0.665171 0.645918 0.890966 0.000000
C143  C     C_2   0.682544 0.562933 0.679743 0.000000
O25   O     O_2   0.695108 0.533180 0.721673 0.000000
O26   O     O_2   0.657262 0.544683 0.612301 0.000000
H133  H     H_    0.537781 0.688430 0.940825 0.000000
H134  H     H_    0.581488 0.710583 0.026076 0.000000
H135  H     H_    0.610923 0.737053 0.938112 0.000000
H136  H     H_    0.624267 0.654270 0.010296 0.000000
H137  H     H_    0.549859 0.559940 0.974192 0.000000
H138  H     H_    0.523276 0.597028 0.025585 0.000000
H139  H     H_    0.509288 0.591525 0.926019 0.000000
H140  H     H_    0.579269 0.636454 0.669475 0.000000
H141  H     H_    0.634425 0.617495 0.609930 0.000000
H142  H     H_    0.727722 0.618748 0.813442 0.000000
H143  H     H_    0.660517 0.515934 0.587222 0.000000
C144  C     C_3   0.604422 0.548076 0.164337 0.000000
C145  C     C_3   0.655953 0.552906 0.132113 0.000000
C146  C     C_3   0.640582 0.536289 0.051368 0.000000
C147  C     C_R   0.701277 0.611635 0.142110 0.000000
N27   N     N_R   0.729471 0.645567 0.081762 0.000000
C148  C     C_R   0.755240 0.696080 0.115131 0.000000
C149  C     C_R   0.791457 0.746642 0.086525 0.000000
C150  C     C_R   0.796366 0.795275 0.116093 0.000000
C151  C     C_R   0.762889 0.791111 0.171094 0.000000
C152  C     C_R   0.735644 0.739876 0.207937 0.000000
C153  C     C_R   0.739379 0.693655 0.184998 0.000000
N28   N     N_R   0.711083 0.640069 0.210056 0.000000
C154  C     C_2   0.756299 0.840518 0.189542 0.000000
O27   O     O_2   0.782073 0.885842 0.158729 0.000000
O28   O     O_2   0.720605 0.835791 0.238920 0.000000
H144  H     H_    0.589195 0.575795 0.132271 0.000000
H145  H     H_    0.571472 0.503792 0.161873 0.000000
H146  H     H_    0.614020 0.561017 0.222940 0.000000
H147  H     H_    0.670332 0.523889 0.160931 0.000000
H148  H     H_    0.669108 0.521485 0.033487 0.000000
H149  H     H_    0.598262 0.500590 0.045110 0.000000
H150  H     H_    0.641377 0.571753 0.015725 0.000000
H151  H     H_    0.814594 0.749044 0.041455 0.000000
H152  H     H_    0.821882 0.835478 0.090672 0.000000
H153  H     H_    0.709234 0.735441 0.250023 0.000000
H154  H     H_    0.716298 0.868526 0.249932 0.000000
C155  C     C_3   0.258633 0.797222 0.841064 0.000000
C156  C     C_3   0.306101 0.807091 0.896799 0.000000
C157  C     C_3   0.309277 0.751603 0.908622 0.000000
C158  C     C_R   0.358726 0.853810 0.871670 0.000000
N29   N     N_R   0.390313 0.832065 0.842261 0.000000
C159  C     C_R   0.432591 0.846773 0.895074 0.000000
C160  C     C_R   0.461699 0.816942 0.914307 0.000000
C161  C     C_R   0.500370 0.833406 0.974529 0.000000
C162  C     C_R   0.507042 0.877754 0.017108 0.000000
C163  C     C_R   0.470856 0.901641 0.003252 0.000000
C164  C     C_R   0.433050 0.885395 0.942155 0.000000
N30   N     N_R   0.389112 0.896721 0.924144 0.000000
C165  C     C_2   0.550452 0.896747 0.078871 0.000000
O29   O     O_2   0.574263 0.868424 0.099623 0.000000
O30   O     O_2   0.566516 0.946940 0.110099 0.000000
H155  H     H_    0.260388 0.771704 0.796622 0.000000
H156  H     H_    0.218956 0.773224 0.866803 0.000000
H157  H     H_    0.263046 0.838350 0.818637 0.000000
H158  H     H_    0.299471 0.816222 0.951776 0.000000
H159  H     H_    0.342648 0.755747 0.952128 0.000000
H160  H     H_    0.269411 0.719210 0.928035 0.000000
H161  H     H_    0.315574 0.737072 0.856197 0.000000
H162  H     H_    0.450071 0.777918 0.887688 0.000000
H163  H     H_    0.524271 0.810518 0.989044 0.000000
H164  H     H_    0.470844 0.929922 0.041205 0.000000
H165  H     H_    0.596046 0.959824 0.149484 0.000000
C166  C     C_3   0.527378 0.004365 0.886642 0.000000
C167  C     C_3   0.494531 0.025864 0.833046 0.000000
C168  C     C_3   0.436175 0.981708 0.808070 0.000000
C169  C     C_R   0.490186 0.069303 0.868784 0.000000
N31   N     N_R   0.452755 0.056350 0.921996 0.000000
C170  C     C_R   0.467228 0.108365 0.946059 0.000000
C171  C     C_R   0.448813 0.120759 0.006736 0.000000
C172  C     C_R   0.470471 0.176038 0.026875 0.000000
C173  C     C_R   0.509987 0.218246 0.986338 0.000000
C174  C     C_R   0.526896 0.205765 0.922498 0.000000
C175  C     C_R   0.507569 0.149643 0.905132 0.000000
N32   N     N_R   0.523164 0.126315 0.852017 0.000000
C176  C     C_2   0.538295 0.274636 0.018016 0.000000
O31   O     O_2   0.515991 0.288627 0.062223 0.000000
O32   O     O_2   0.591825 0.307761 0.007271 0.000000
H166  H     H_    0.520723 0.962138 0.871721 0.000000
H167  H     H_    0.571995 0.033895 0.886206 0.000000
H168  H     H_    0.515956 0.003848 0.943336 0.000000
H169  H     H_    0.519065 0.049173 0.787501 0.000000
H170  H     H_    0.403813 0.979042 0.841710 0.000000
H171  H     H_    0.422923 0.991329 0.752207 0.000000
H172  H     H_    0.434965 0.940491 0.806212 0.000000
H173  H     H_    0.421077 0.087982 0.041634 0.000000
H174  H     H_    0.458413 0.185521 0.077243 0.000000
H175  H     H_    0.555502 0.239198 0.889348 0.000000
H176  H     H_    0.612503 0.341952 0.035267 0.000000
C177  C     C_3   0.274173 0.089949 0.822755 0.000000
C178  C     C_3   0.311854 0.064946 0.858310 0.000000
C179  C     C_3   0.322548 0.082514 0.938182 0.000000
C180  C     C_R   0.288081 0.001344 0.850685 0.000000
N33   N     N_R   0.234612 0.969040 0.819261 0.000000
C181  C     C_R   0.218850 0.921478 0.860858 0.000000
C182  C     C_R   0.165653 0.882332 0.873039 0.000000
C183  C     C_R   0.157736 0.839271 0.924101 0.000000
C184  C     C_R   0.202718 0.837895 0.966081 0.000000
C185  C     C_R   0.255788 0.880298 0.956723 0.000000
C186  C     C_R   0.262943 0.920781 0.902584 0.000000
N34   N     N_R   0.309120 0.969793 0.895250 0.000000
C187  C     C_2   0.193783 0.792282 0.020927 0.000000
O33   O     O_2   0.232479 0.793148 0.062295 0.000000
O34   O     O_2   0.142870 0.748703 0.024936 0.000000
H177  H     H_    0.273761 0.120992 0.860495 0.000000
H178  H     H_    0.290680 0.114245 0.772326 0.000000
H179  H     H_    0.230664 0.058302 0.810959 0.000000
H180  H     H_    0.352841 0.085095 0.837097 0.000000
H181  H     H_    0.344508 0.061124 0.969255 0.000000
H182  H     H_    0.349148 0.128756 0.941485 0.000000
H183  H     H_    0.282995 0.071896 0.962355 0.000000
H184  H     H_    0.130444 0.884612 0.844297 0.000000
H185  H     H_    0.115908 0.807796 0.932339 0.000000
H186  H     H_    0.290769 0.884030 0.993976 0.000000
H187  H     H_    0.137171 0.718187 0.060072 0.000000
C188  C     C_3   0.783937 0.755320 0.573728 0.000000
C189  C     C_3   0.773698 0.770576 0.643361 0.000000
C190  C     C_3   0.788518 0.737941 0.705095 0.000000
C191  C     C_R   0.806674 0.831667 0.647753 0.000000
N35   N     N_R   0.858291 0.859366 0.687061 0.000000
C192  C     C_R   0.864371 0.912303 0.687299 0.000000
C193  C     C_R   0.907011 0.957159 0.723619 0.000000
C194  C     C_R   0.901992 0.005907 0.728728 0.000000
C195  C     C_R   0.853059 0.007705 0.702249 0.000000
C196  C     C_R   0.810353 0.961672 0.665196 0.000000
C197  C     C_R   0.818682 0.915576 0.651814 0.000000
N36   N     N_R   0.782614 0.865307 0.619761 0.000000
C198  C     C_2   0.846559 0.058118 0.716014 0.000000
O35   O     O_2   0.884461 0.098230 0.747879 0.000000
O36   O     O_2   0.799075 0.060688 0.693474 0.000000
H188  H     H_    0.803998 0.793963 0.540395 0.000000
H189  H     H_    0.812639 0.738471 0.589379 0.000000
H190  H     H_    0.744403 0.723774 0.548158 0.000000
H191  H     H_    0.729277 0.759482 0.637586 0.000000
H192  H     H_    0.772346 0.738980 0.757348 0.000000
H193  H     H_    0.771465 0.694051 0.688650 0.000000
H194  H     H_    0.832882 0.753855 0.716142 0.000000
H195  H     H_    0.942633 0.953840 0.750766 0.000000
H196  H     H_    0.935209 0.041037 0.758165 0.000000
H197  H     H_    0.770559 0.960881 0.652556 0.000000
H198  H     H_    0.795729 0.094497 0.701745 0.000000
C199  C     C_3   0.665594 0.895766 0.362805 0.000000
C200  C     C_3   0.622432 0.901166 0.405080 0.000000
C201  C     C_3   0.565322 0.859477 0.374754 0.000000
C202  C     C_R   0.635189 0.901956 0.489421 0.000000
N37   N     N_R   0.685321 0.899833 0.507405 0.000000
C203  C     C_R   0.719328 0.953932 0.522982 0.000000
C204  C     C_R   0.774726 0.981387 0.511790 0.000000
C205  C     C_R   0.801414 0.039450 0.515596 0.000000
C206  C     C_R   0.772441 0.069098 0.529550 0.000000
C207  C     C_R   0.716031 0.040352 0.540033 0.000000
C208  C     C_R   0.689594 0.982477 0.533313 0.000000
N38   N     N_R   0.634294 0.948037 0.521663 0.000000
C209  C     C_2   0.801534 0.131073 0.529518 0.000000
O37   O     O_2   0.851836 0.155693 0.527966 0.000000
O38   O     O_2   0.772901 0.161143 0.528848 0.000000
H199  H     H_    0.668439 0.856003 0.376643 0.000000
H200  H     H_    0.653562 0.896403 0.302553 0.000000
H201  H     H_    0.706860 0.932552 0.372706 0.000000
H202  H     H_    0.626092 0.942488 0.387579 0.000000
H203  H     H_    0.541833 0.835062 0.420542 0.000000
H204  H     H_    0.544102 0.882590 0.344404 0.000000
H205  H     H_    0.568108 0.830376 0.335978 0.000000
H206  H     H_    0.796757 0.958528 0.498716 0.000000
H207  H     H_    0.844919 0.061386 0.506047 0.000000
H208  H     H_    0.693433 0.063147 0.549154 0.000000
H209  H     H_    0.792263 0.201887 0.527958 0.000000
C210  C     C_3   0.701722 0.780134 0.766906 0.000000
C211  C     C_3   0.658391 0.793916 0.731169 0.000000
C212  C     C_3   0.680558 0.857123 0.716440 0.000000
C213  C     C_R   0.627281 0.758491 0.664049 0.000000
N39   N     N_R   0.639484 0.780097 0.593697 0.000000
C214  C     C_R   0.589375 0.755174 0.555504 0.000000
C215  C     C_R   0.575386 0.766539 0.485315 0.000000
C216  C     C_R   0.524824 0.730175 0.450978 0.000000
C217  C     C_R   0.486789 0.685885 0.490362 0.000000
C218  C     C_R   0.498702 0.680324 0.565917 0.000000
C219  C     C_R   0.551281 0.715111 0.596206 0.000000
N40   N     N_R   0.572888 0.715775 0.666124 0.000000
C220  C     C_2   0.436405 0.644575 0.449798 0.000000
O39   O     O_2   0.432665 0.644726 0.382187 0.000000
O40   O     O_2   0.394300 0.606005 0.486022 0.000000
H210  H     H_    0.696005 0.741941 0.741368 0.000000
H211  H     H_    0.743541 0.815484 0.762598 0.000000
H212  H     H_    0.691433 0.769488 0.824598 0.000000
H213  H     H_    0.631192 0.782877 0.775670 0.000000
H214  H     H_    0.646652 0.869495 0.712718 0.000000
H215  H     H_    0.710799 0.880901 0.762746 0.000000
H216  H     H_    0.700149 0.869404 0.663842 0.000000
H217  H     H_    0.606076 0.799199 0.455029 0.000000
H218  H     H_    0.516180 0.735818 0.392432 0.000000
H219  H     H_    0.468900 0.649292 0.599674 0.000000
H220  H     H_    0.361571 0.579324 0.457806 0.000000
C221  C     C_3   0.614771 0.682338 0.336626 0.000000
C222  C     C_3   0.636041 0.707496 0.413296 0.000000
C223  C     C_3   0.617331 0.671940 0.482072 0.000000
C224  C     C_R   0.694955 0.733439 0.423727 0.000000
N41   N     N_R   0.725033 0.715154 0.384156 0.000000
C225  C     C_R   0.771739 0.764487 0.378671 0.000000
C226  C     C_R   0.815211 0.775008 0.337685 0.000000
C227  C     C_R   0.847974 0.830601 0.317411 0.000000
C228  C     C_R   0.840027 0.874451 0.343830 0.000000
C229  C     C_R   0.802551 0.863332 0.396535 0.000000
C230  C     C_R   0.768195 0.808003 0.412249 0.000000
N42   N     N_R   0.722078 0.788817 0.448997 0.000000
C231  C     C_2   0.870881 0.932400 0.315359 0.000000
O41   O     O_2   0.902999 0.942419 0.267833 0.000000
O42   O     O_2   0.863395 0.974677 0.341011 0.000000
H221  H     H_    0.626120 0.648425 0.326746 0.000000
H222  H     H_    0.569309 0.667599 0.327869 0.000000
H223  H     H_    0.632074 0.716658 0.295141 0.000000
H224  H     H_    0.627113 0.742913 0.409044 0.000000
H225  H     H_    0.630561 0.638860 0.484154 0.000000
H226  H     H_    0.641000 0.697615 0.530626 0.000000
H227  H     H_    0.572460 0.655677 0.486311 0.000000
H228  H     H_    0.819460 0.741012 0.313960 0.000000
H229  H     H_    0.878491 0.839216 0.278307 0.000000
H230  H     H_    0.795470 0.896231 0.417652 0.000000
H231  H     H_    0.883637 0.012674 0.322068 0.000000
C232  C     C_3   0.671781 0.377263 0.614498 0.000000
C233  C     C_3   0.631329 0.400592 0.595198 0.000000
C234  C     C_3   0.576957 0.351526 0.577005 0.000000
C235  C     C_R   0.625281 0.426812 0.659212 0.000000
N43   N     N_R   0.654674 0.427871 0.726251 0.000000
C236  C     C_R   0.617160 0.419358 0.774224 0.000000
C237  C     C_R   0.621344 0.408373 0.848815 0.000000
C238  C     C_R   0.574752 0.391120 0.886876 0.000000
C239  C     C_R   0.524412 0.381298 0.849179 0.000000
C240  C     C_R   0.523032 0.398101 0.775413 0.000000
C241  C     C_R   0.570069 0.417825 0.738258 0.000000
N44   N     N_R   0.575406 0.427575 0.664320 0.000000
C242  C     C_2   0.473772 0.358063 0.888766 0.000000
O43   O     O_2   0.476695 0.353380 0.956153 0.000000
O44   O     O_2   0.423766 0.341451 0.850883 0.000000
H232  H     H_    0.710881 0.409110 0.640629 0.000000
H233  H     H_    0.653608 0.341664 0.653278 0.000000
H234  H     H_    0.679106 0.362165 0.563382 0.000000
H235  H     H_    0.641394 0.429291 0.547174 0.000000
H236  H     H_    0.543481 0.363294 0.568567 0.000000
H237  H     H_    0.581125 0.337856 0.524155 0.000000
H238  H     H_    0.567072 0.318761 0.620935 0.000000
H239  H     H_    0.658944 0.410607 0.876902 0.000000
H240  H     H_    0.577674 0.384763 0.945846 0.000000
H241  H     H_    0.485934 0.395329 0.748161 0.000000
H242  H     H_    0.390583 0.326103 0.877108 0.000000
C243  C     C_3   0.365295 0.277797 0.667193 0.000000
C244  C     C_3   0.425279 0.308452 0.649805 0.000000
C245  C     C_3   0.461557 0.287882 0.696000 0.000000
C246  C     C_R   0.432601 0.307626 0.570870 0.000000
N45   N     N_R   0.403937 0.260301 0.525497 0.000000
C247  C     C_R   0.404031 0.285531 0.458915 0.000000
C248  C     C_R   0.382526 0.259362 0.392346 0.000000
C249  C     C_R   0.383648 0.292006 0.330109 0.000000
C250  C     C_R   0.405459 0.350096 0.335508 0.000000
C251  C     C_R   0.431164 0.376416 0.402596 0.000000
C252  C     C_R   0.431717 0.343353 0.463854 0.000000
N46   N     N_R   0.454852 0.359474 0.534062 0.000000
C253  C     C_2   0.399220 0.382624 0.270088 0.000000
O45   O     O_2   0.389755 0.362606 0.208463 0.000000
O46   O     O_2   0.399941 0.432842 0.278017 0.000000
H243  H     H_    0.349741 0.232061 0.663593 0.000000
H244  H     H_    0.361708 0.287868 0.724231 0.000000
H245  H     H_    0.340187 0.292248 0.627790 0.000000
H246  H     H_    0.437659 0.352971 0.659104 0.000000
H247  H     H_    0.459864 0.253201 0.667120 0.000000
H248  H     H_    0.505246 0.317889 0.695049 0.000000
H249  H     H_    0.449088 0.276973 0.753391 0.000000
H250  H     H_    0.364845 0.214577 0.388266 0.000000
H251  H     H_    0.364781 0.271326 0.277928 0.000000
H252  H     H_    0.447918 0.421021 0.407121 0.000000
H253  H     H_    0.394250 0.453325 0.234866 0.000000
C254  C     C_3   0.453037 0.469309 0.790662 0.000000
C255  C     C_3   0.509516 0.516550 0.772575 0.000000
C256  C     C_3   0.559562 0.515179 0.815291 0.000000
C257  C     C_R   0.512281 0.533445 0.691802 0.000000
N47   N     N_R   0.492910 0.492159 0.636431 0.000000
C258  C     C_R   0.445679 0.494094 0.610367 0.000000
C259  C     C_R   0.401939 0.452965 0.570373 0.000000
C260  C     C_R   0.353343 0.457491 0.558635 0.000000
C261  C     C_R   0.349153 0.502557 0.587067 0.000000
C262  C     C_R   0.394341 0.544706 0.626825 0.000000
C263  C     C_R   0.443110 0.540044 0.636954 0.000000
N48   N     N_R   0.489324 0.570445 0.682013 0.000000
C264  C     C_2   0.296882 0.505921 0.571895 0.000000
O47   O     O_2   0.255013 0.465023 0.548677 0.000000
O48   O     O_2   0.296003 0.555548 0.576256 0.000000
H254  H     H_    0.435506 0.435137 0.749936 0.000000
H255  H     H_    0.455001 0.452973 0.847927 0.000000
H256  H     H_    0.422698 0.486468 0.787521 0.000000
H257  H     H_    0.508668 0.552752 0.797992 0.000000
H258  H     H_    0.578811 0.550860 0.852022 0.000000
H259  H     H_    0.547557 0.481626 0.857519 0.000000
H260  H     H_    0.590182 0.516974 0.778306 0.000000
H261  H     H_    0.404177 0.416637 0.551445 0.000000
H262  H     H_    0.318474 0.425056 0.527453 0.000000
H263  H     H_    0.390611 0.578642 0.651514 0.000000
H264  H     H_    0.263007 0.558180 0.556428 0.000000
C265  C     C_3   0.516670 0.524139 0.337608 0.000000
C266  C     C_3   0.543317 0.552912 0.410732 0.000000
C267  C     C_3   0.501683 0.537204 0.466971 0.000000
C268  C     C_R   0.591255 0.541776 0.439542 0.000000
N49   N     N_R   0.574880 0.490061 0.478570 0.000000
C269  C     C_R   0.593998 0.464631 0.434667 0.000000
C270  C     C_R   0.569440 0.407971 0.422078 0.000000
C271  C     C_R   0.582131 0.388049 0.362453 0.000000
C272  C     C_R   0.617146 0.424531 0.312768 0.000000
C273  C     C_R   0.640519 0.482331 0.323441 0.000000
C274  C     C_R   0.628351 0.501859 0.384186 0.000000
N50   N     N_R   0.632650 0.554151 0.389518 0.000000
C275  C     C_2   0.620708 0.400443 0.244165 0.000000
O49   O     O_2   0.619203 0.423790 0.184786 0.000000
O50   O     O_2   0.619424 0.349203 0.245725 0.000000
H265  H     H_    0.513379 0.481225 0.337303 0.000000
H266  H     H_    0.475439 0.523210 0.326652 0.000000
H267  H     H_    0.542253 0.549432 0.292669 0.000000
H268  H     H_    0.555170 0.595964 0.398103 0.000000
H269  H     H_    0.523403 0.560704 0.518155 0.000000
H270  H     H_    0.468597 0.549215 0.446128 0.000000
H271  H     H_    0.483248 0.491683 0.478758 0.000000
H272  H     H_    0.535651 0.379518 0.451860 0.000000
H273  H     H_    0.558976 0.344083 0.349328 0.000000
H274  H     H_    0.662030 0.511526 0.281344 0.000000
H275  H     H_    0.619616 0.332285 0.200142 0.000000
C276  C     C_3   0.542447 0.773744 0.831482 0.000000
C277  C     C_3   0.502667 0.775912 0.767501 0.000000
C278  C     C_3   0.529709 0.792996 0.697371 0.000000
C279  C     C_R   0.455763 0.720050 0.758867 0.000000
N51   N     N_R   0.463473 0.672056 0.770129 0.000000
C280  C     C_R   0.417032 0.636837 0.801815 0.000000
C281  C     C_R   0.405265 0.584721 0.832050 0.000000
C282  C     C_R   0.357011 0.556388 0.867452 0.000000
C283  C     C_R   0.321924 0.580996 0.872958 0.000000
C284  C     C_R   0.335082 0.634390 0.842686 0.000000
C285  C     C_R   0.382694 0.661589 0.805924 0.000000
N52   N     N_R   0.404685 0.714073 0.774229 0.000000
C286  C     C_2   0.271101 0.550640 0.911536 0.000000
O51   O     O_2   0.259311 0.503783 0.938220 0.000000
O52   O     O_2   0.237231 0.574350 0.917747 0.000000
H276  H     H_    0.554969 0.740653 0.822758 0.000000
H277  H     H_    0.579419 0.815232 0.839117 0.000000
H278  H     H_    0.521596 0.761518 0.883231 0.000000
H279  H     H_    0.486769 0.805153 0.780340 0.000000
H280  H     H_    0.502603 0.765769 0.651802 0.000000
H281  H     H_    0.547962 0.837306 0.682506 0.000000
H282  H     H_    0.566207 0.789994 0.711055 0.000000
H283  H     H_    0.433994 0.567455 0.830617 0.000000
H284  H     H_    0.347574 0.515281 0.891890 0.000000
H285  H     H_    0.307965 0.653267 0.846661 0.000000
H286  H     H_    0.203877 0.554255 0.943197 0.000000
C287  C     C_3   0.805562 0.437217 0.547144 0.000000
C288  C     C_3   0.800587 0.490825 0.556889 0.000000
C289  C     C_3   0.746178 0.487379 0.526049 0.000000
C290  C     C_R   0.819802 0.514087 0.632687 0.000000
N53   N     N_R   0.801145 0.479013 0.696395 0.000000
C291  C     C_R   0.849714 0.486905 0.731541 0.000000
C292  C     C_R   0.855562 0.456088 0.792003 0.000000
C293  C     C_R   0.907594 0.461228 0.814023 0.000000
C294  C     C_R   0.951309 0.492980 0.771091 0.000000
C295  C     C_R   0.943960 0.524402 0.710434 0.000000
C296  C     C_R   0.893914 0.526034 0.695439 0.000000
N54   N     N_R   0.876610 0.550503 0.636413 0.000000
C297  C     C_2   0.004018 0.489810 0.787525 0.000000
O53   O     O_2   0.011426 0.465787 0.843814 0.000000
O54   O     O_2   0.043979 0.512200 0.740138 0.000000
H287  H     H_    0.798349 0.426641 0.487491 0.000000
H288  H     H_    0.847945 0.443691 0.567359 0.000000
H289  H     H_    0.775295 0.402118 0.578082 0.000000
H290  H     H_    0.832032 0.521795 0.523609 0.000000
H291  H     H_    0.727218 0.494855 0.572180 0.000000
H292  H     H_    0.752503 0.519979 0.483059 0.000000
H293  H     H_    0.720975 0.446485 0.498429 0.000000
H294  H     H_    0.819913 0.426675 0.819576 0.000000
H295  H     H_    0.912386 0.436048 0.860622 0.000000
H296  H     H_    0.973871 0.540117 0.670857 0.000000
H297  H     H_    0.078367 0.509690 0.751214 0.000000
C298  C     C_3   0.968088 0.679113 0.748889 0.000000
C299  C     C_3   0.938701 0.713926 0.751644 0.000000
C300  C     C_3   0.979837 0.768607 0.787584 0.000000
C301  C     C_R   0.922070 0.727156 0.675944 0.000000
N55   N     N_R   0.920885 0.701483 0.610151 0.000000
C302  C     C_R   0.918649 0.739560 0.559302 0.000000
C303  C     C_R   0.926786 0.742026 0.485654 0.000000
C304  C     C_R   0.931586 0.789101 0.444497 0.000000
C305  C     C_R   0.924909 0.831382 0.476638 0.000000
C306  C     C_R   0.911025 0.825188 0.549096 0.000000
C307  C     C_R   0.912810 0.781101 0.591000 0.000000
N56   N     N_R   0.915326 0.775152 0.665719 0.000000
C308  C     C_2   0.942620 0.886599 0.439520 0.000000
O55   O     O_2   0.965216 0.896084 0.382003 0.000000
O56   O     O_2   0.936239 0.927856 0.470251 0.000000
H298  H     H_    0.002142 0.704739 0.714471 0.000000
H299  H     H_    0.984745 0.671933 0.804776 0.000000
H300  H     H_    0.939989 0.638548 0.723125 0.000000
H301  H     H_    0.901903 0.693876 0.782887 0.000000
H302  H     H_    0.005748 0.797149 0.745505 0.000000
H303  H     H_    0.957938 0.789262 0.809665 0.000000
H304  H     H_    0.005988 0.761263 0.833742 0.000000
H305  H     H_    0.934018 0.710671 0.461854 0.000000
H306  H     H_    0.942865 0.793483 0.388121 0.000000
H307  H     H_    0.906945 0.858102 0.574893 0.000000
H308  H     H_    0.949763 0.964819 0.446980 0.000000
C309  C     C_3   0.047788 0.643418 0.680114 0.000000
C310  C     C_3   0.069117 0.648782 0.606628 0.000000
C311  C     C_3   0.048425 0.591576 0.571236 0.000000
C312  C     C_R   0.054738 0.685746 0.553738 0.000000
N57   N     N_R   0.000702 0.663444 0.518040 0.000000
C313  C     C_R   0.013310 0.676939 0.445890 0.000000
C314  C     C_R   0.978974 0.665568 0.381565 0.000000
C315  C     C_R   0.001607 0.675191 0.313999 0.000000
C316  C     C_R   0.058434 0.697376 0.310746 0.000000
C317  C     C_R   0.092996 0.716440 0.374765 0.000000
C318  C     C_R   0.069404 0.706586 0.440755 0.000000
N58   N     N_R   0.096802 0.718122 0.507780 0.000000
C319  C     C_2   0.081681 0.698238 0.240884 0.000000
O57   O     O_2   0.052306 0.687195 0.182745 0.000000
O58   O     O_2   0.134890 0.707820 0.241480 0.000000
H309  H     H_    0.003324 0.629775 0.668377 0.000000
H310  H     H_    0.056881 0.612936 0.715685 0.000000
H311  H     H_    0.068709 0.684216 0.707932 0.000000
H312  H     H_    0.114137 0.667733 0.617007 0.000000
H313  H     H_    0.065673 0.597477 0.516871 0.000000
H314  H     H_    0.061795 0.564211 0.607382 0.000000
H315  H     H_    0.002661 0.570738 0.560677 0.000000
H316  H     H_    0.935776 0.650382 0.381778 0.000000
H317  H     H_    0.974187 0.663055 0.263894 0.000000
H318  H     H_    0.137336 0.735324 0.373964 0.000000
H319  H     H_    0.149858 0.706247 0.196057 0.000000
C320  C     C_3   0.726664 0.620706 0.502153 0.000000
C321  C     C_3   0.788577 0.647851 0.508929 0.000000
C322  C     C_3   0.802670 0.628390 0.584160 0.000000
C323  C     C_R   0.808754 0.629857 0.449816 0.000000
N59   N     N_R   0.851221 0.614019 0.462885 0.000000
C324  C     C_R   0.841335 0.582039 0.402885 0.000000
C325  C     C_R   0.864054 0.546380 0.392986 0.000000
C326  C     C_R   0.840333 0.507966 0.336755 0.000000
C327  C     C_R   0.796778 0.507784 0.289127 0.000000
C328  C     C_R   0.778410 0.548365 0.294786 0.000000
C329  C     C_R   0.799117 0.583298 0.354771 0.000000
N60   N     N_R   0.777760 0.614973 0.381926 0.000000
C330  C     C_2   0.768741 0.462369 0.235476 0.000000
O59   O     O_2   0.776056 0.420366 0.242443 0.000000
O60   O     O_2   0.734209 0.466108 0.179290 0.000000
H320  H     H_    0.710128 0.574762 0.496773 0.000000
H321  H     H_    0.712797 0.631430 0.551085 0.000000
H322  H     H_    0.710387 0.636360 0.455108 0.000000
H323  H     H_    0.806447 0.693325 0.499718 0.000000
H324  H     H_    0.814509 0.661725 0.624126 0.000000
H325  H     H_    0.766606 0.590641 0.601963 0.000000
H326  H     H_    0.835384 0.615868 0.586619 0.000000
H327  H     H_    0.896690 0.545350 0.431587 0.000000
H328  H     H_    0.855542 0.477339 0.331332 0.000000
H329  H     H_    0.746805 0.550411 0.255922 0.000000
H330  H     H_    0.716731 0.436297 0.143465 0.000000
C331  C     C_3   0.751455 0.249165 0.776194 0.000000
C332  C     C_3   0.743969 0.298851 0.740715 0.000000
C333  C     C_3   0.756334 0.305956 0.660692 0.000000
C334  C     C_R   0.690352 0.299073 0.756916 0.000000
N61   N     N_R   0.650610 0.247677 0.785277 0.000000
C335  C     C_R   0.655685 0.260199 0.856533 0.000000
C336  C     C_R   0.644878 0.221564 0.913856 0.000000
C337  C     C_R   0.663872 0.241036 0.984680 0.000000
C338  C     C_R   0.692965 0.298505 0.996584 0.000000
C339  C     C_R   0.701110 0.336780 0.937668 0.000000
C340  C     C_R   0.684898 0.317108 0.866795 0.000000
N62   N     N_R   0.702795 0.345047 0.801677 0.000000
C341  C     C_2   0.718775 0.318209 0.070919 0.000000
O61   O     O_2   0.703648 0.286823 0.124670 0.000000
O62   O     O_2   0.763070 0.368937 0.079071 0.000000
H331  H     H_    0.718654 0.208528 0.754916 0.000000
H332  H     H_    0.792305 0.253137 0.763930 0.000000
H333  H     H_    0.751512 0.249807 0.837287 0.000000
H334  H     H_    0.777467 0.336449 0.768487 0.000000
H335  H     H_    0.723568 0.311624 0.626653 0.000000
H336  H     H_    0.796821 0.343591 0.655856 0.000000
H337  H     H_    0.760648 0.269446 0.642097 0.000000
H338  H     H_    0.625721 0.176974 0.903705 0.000000
H339  H     H_    0.658083 0.210965 0.029856 0.000000
H340  H     H_    0.721092 0.380336 0.947168 0.000000
H341  H     H_    0.783930 0.379524 0.126644 0.000000
C342  C     C_3   0.028754 0.886166 0.608940 0.000000
C343  C     C_3   0.047215 0.940105 0.645488 0.000000
C344  C     C_3   0.009451 0.967409 0.626280 0.000000
C345  C     C_R   0.050196 0.926299 0.723038 0.000000
N63   N     N_R   0.003865 0.899547 0.764888 0.000000
C346  C     C_R   0.028793 0.919814 0.832535 0.000000
C347  C     C_R   0.003492 0.914276 0.896209 0.000000
C348  C     C_R   0.036146 0.941785 0.958813 0.000000
C349  C     C_R   0.093339 0.974351 0.957220 0.000000
C350  C     C_R   0.118780 0.978589 0.892750 0.000000
C351  C     C_R   0.085707 0.951770 0.830695 0.000000
N64   N     N_R   0.101609 0.953693 0.761754 0.000000
C352  C     C_2   0.126427 0.005819 0.023203 0.000000
O63   O     O_2   0.104775 0.000417 0.080822 0.000000
O64   O     O_2   0.180679 0.041499 0.020172 0.000000
H342  H     H_    0.994839 0.859409 0.640479 0.000000
H343  H     H_    0.018893 0.890039 0.549550 0.000000
H344  H     H_    0.057343 0.867698 0.621377 0.000000
H345  H     H_    0.088866 0.971824 0.635093 0.000000
H346  H     H_    0.020509 0.002272 0.665145 0.000000
H347  H     H_    0.015572 0.985345 0.569281 0.000000
H348  H     H_    0.965975 0.936214 0.629949 0.000000
H349  H     H_    0.959231 0.890425 0.897342 0.000000
H350  H     H_    0.016165 0.938461 0.008754 0.000000
H351  H     H_    0.162880 0.003725 0.890330 0.000000
H352  H     H_    0.202255 0.062297 0.063598 0.000000

loop_
_geom_bond_atom_site_label_1
_geom_bond_atom_site_label_2
_geom_bond_distance
_geom_bond_site_symmetry_2
_ccdc_geom_bond_type
Zn1   N2    2.070 .      S
Zn1   N3    2.170 .      S
Zn1   N29   2.212 .      S
Zn1   N52   2.153 .      S
Zn2   N6    2.205 .      S
Zn2   N8    2.120 .      S
Zn2   N32   2.326 .      S
Zn2   N61   2.190 .      S
Zn3   N1    2.132 .      S
Zn3   N5    2.260 1_565  S
Zn3   N14   2.121 .      S
Zn3   N38   2.194 .      S
Zn4   N9    2.178 1_565  S
Zn4   N12   2.071 .      S
Zn4   N33   2.119 .      S
Zn4   N64   2.233 .      S
Zn5   N7    2.076 .      S
Zn5   N10   2.205 .      S
Zn5   N18   2.202 .      S
Zn5   N45   2.190 .      S
Zn6   N4    2.122 .      S
Zn6   N11   2.057 .      S
Zn6   N19   2.222 .      S
Zn6   N58   2.164 .      S
Zn7   N28   2.326 .      S
Zn7   N41   2.283 .      S
Zn7   N50   2.339 .      S
Zn7   N60   2.196 .      S
Zn8   N13   2.205 .      S
Zn8   N16   2.237 .      S
Zn8   N17   2.197 1_565  S
Zn8   N20   2.203 .      S
Zn9   N22   2.244 .      S
Zn9   N24   2.191 .      S
Zn9   N26   2.194 .      S
Zn9   N27   2.292 1_556  S
Zn10  N15   2.213 1_556  S
Zn10  N30   2.302 .      S
Zn10  N31   2.242 1_565  S
Zn10  N34   2.111 .      S
Zn11  N36   2.202 .      S
Zn11  N37   2.137 .      S
Zn11  N39   2.068 .      S
Zn11  N42   2.263 .      S
Zn12  N44   2.166 .      S
Zn12  N46   2.252 .      S
Zn12  N47   2.223 .      S
Zn12  N49   2.315 .      S
Zn13  N25   2.140 .      S
Zn13  N40   2.096 .      S
Zn13  N48   2.211 .      S
Zn13  N51   2.134 .      S
Zn14  N54   2.319 .      S
Zn14  N55   2.133 .      S
Zn14  N57   2.272 1_655  S
Zn14  N59   2.228 .      S
Zn15  N21   2.241 .      S
Zn15  N43   2.067 .      S
Zn15  N53   2.265 .      S
Zn15  N62   2.245 .      S
Zn16  N23   2.235 .      S
Zn16  N35   2.127 .      S
Zn16  N56   2.129 .      S
Zn16  N63   2.275 1_655  S
C1    C2    1.515 .      S
C1    H1    1.101 .      S
C1    H2    1.103 .      S
C1    H3    1.098 .      S
C2    C3    1.464 .      S
C2    C4    1.438 .      S
C2    H4    1.089 .      S
C3    H5    1.080 .      S
C3    H6    1.066 .      S
C3    H7    1.070 .      S
C6    H8    1.072 .      S
C7    H9    1.080 .      S
C8    C11   1.463 .      S
C9    H10   1.076 .      S
C11   O2    1.343 .      S
O2    H11   0.966 .      S
C12   C13   1.500 .      S
C12   H12   1.094 .      S
C12   H13   1.097 .      S
C12   H14   1.106 .      S
C13   C14   1.493 .      S
C13   C15   1.452 .      S
C13   H15   1.107 .      S
C14   H16   1.105 .      S
C14   H17   1.088 .      S
C14   H18   1.079 .      S
C17   H19   1.055 .      S
C18   H20   1.080 .      S
C19   C22   1.469 .      S
C20   H21   1.078 .      S
C22   O4    1.346 .      S
O4    H22   0.966 .      S
C23   C24   1.510 .      S
C23   H23   1.106 .      S
C23   H24   1.101 .      S
C23   H25   1.098 .      S
C24   C25   1.501 .      S
C24   C26   1.482 .      S
C24   H26   1.076 .      S
C25   H27   1.097 .      S
C25   H28   1.108 .      S
C25   H29   1.089 .      S
N5    Zn3   2.260 1_545  S
C28   H30   1.079 1_545  S
C29   H31   1.081 .      S
C30   C33   1.469 .      S
C31   H32   1.076 .      S
C33   O6    1.346 .      S
O6    H33   0.966 1_556  S
H30   C28   1.079 1_565  S
H33   O6    0.966 1_554  S
C34   C35   1.493 .      S
C34   H34   1.081 .      S
C34   H35   1.108 .      S
C34   H36   1.087 .      S
C35   C36   1.462 .      S
C35   C37   1.441 .      S
C35   H37   1.097 .      S
C36   H38   1.094 .      S
C36   H39   1.099 .      S
C36   H40   1.084 .      S
C39   H41   1.067 .      S
C40   H42   1.076 .      S
C41   C44   1.474 .      S
C42   H43   1.067 .      S
C44   O8    1.342 .      S
O8    H44   0.966 .      S
C45   C46   1.502 1_565  S
C45   H45   1.091 .      S
C45   H46   1.093 .      S
C45   H47   1.086 1_565  S
C46   C45   1.502 1_545  S
C46   C47   1.476 1_545  S
C46   C48   1.466 .      S
C46   H48   1.100 .      S
C47   C46   1.476 1_565  S
C47   H49   1.096 1_565  S
C47   H50   1.106 .      S
C47   H51   1.098 1_565  S
N9    Zn4   2.178 1_545  S
C50   H52   1.080 .      S
C51   H53   1.081 .      S
C52   C55   1.469 .      S
C53   H54   1.080 .      S
C55   O10   1.346 .      S
O10   H55   0.966 .      S
H47   C45   1.086 1_545  S
H49   C47   1.096 1_545  S
H51   C47   1.098 1_545  S
C56   C57   1.498 .      S
C56   H56   1.108 .      S
C56   H57   1.108 .      S
C56   H58   1.101 .      S
C57   C58   1.479 .      S
C57   C59   1.473 .      S
C57   H59   1.082 .      S
C58   H60   1.072 .      S
C58   H61   1.107 .      S
C58   H62   1.096 .      S
C61   H63   1.072 .      S
C62   H64   1.080 .      S
C63   C66   1.468 .      S
C64   H65   1.073 .      S
C66   O12   1.346 1_565  S
O12   C66   1.346 1_545  S
O12   H66   0.966 .      S
C67   C68   1.483 1_545  S
C67   H67   1.096 .      S
C67   H68   1.103 .      S
C67   H69   1.064 .      S
C68   C67   1.483 1_565  S
C68   C69   1.493 .      S
C68   C70   1.508 .      S
C68   H70   1.087 .      S
C69   H71   1.100 .      S
C69   H72   1.097 1_565  S
C69   H73   1.077 .      S
C72   H74   1.063 .      S
C73   H75   1.081 .      S
C74   C77   1.468 .      S
C75   H76   1.070 .      S
C77   O14   1.346 .      S
O14   H77   0.966 .      S
H72   C69   1.097 1_545  S
C78   C79   1.521 .      S
C78   H78   1.104 .      S
C78   H79   1.106 .      S
C78   H80   1.103 .      S
C79   C80   1.505 1_565  S
C79   C81   1.462 .      S
C79   H81   1.061 1_565  S
C80   C79   1.505 1_545  S
C80   H82   1.104 .      S
C80   H83   1.106 .      S
C80   H84   1.093 .      S
N15   Zn10  2.213 1_554  S
C83   H85   1.048 .      S
C84   H86   1.079 .      S
C85   C88   1.460 .      S
C86   H87   1.073 .      S
C88   O16   1.346 .      S
O16   H88   0.966 .      S
H81   C79   1.061 1_545  S
C89   C90   1.501 .      S
C89   H89   1.109 .      S
C89   H90   1.091 .      S
C89   H91   1.080 .      S
C90   C91   1.528 .      S
C90   C92   1.496 .      S
C90   H92   1.090 .      S
C91   H93   1.109 .      S
C91   H94   1.106 .      S
C91   H95   1.109 .      S
N17   Zn8   2.197 1_545  S
C94   H96   1.075 .      S
C95   H97   1.081 .      S
C96   C99   1.468 .      S
C97   H98   1.079 .      S
C99   O18   1.346 .      S
O18   H99   0.966 .      S
C100  C101  1.509 .      S
C100  H100  1.089 .      S
C100  H101  1.107 .      S
C100  H102  1.103 .      S
C101  C102  1.469 .      S
C101  C103  1.489 .      S
C101  H103  1.088 .      S
C102  H104  1.074 .      S
C102  H105  1.105 .      S
C102  H106  1.063 .      S
C105  H107  1.078 .      S
C106  H108  1.080 .      S
C107  C110  1.469 .      S
C108  H109  1.077 .      S
C110  O20   1.346 .      S
O20   H110  0.966 .      S
C111  C112  1.527 .      S
C111  H111  1.099 .      S
C111  H112  1.096 .      S
C111  H113  1.102 .      S
C112  C113  1.476 .      S
C112  C114  1.501 .      S
C112  H114  1.091 .      S
C113  H115  1.079 .      S
C113  H116  1.095 .      S
C113  H117  1.093 .      S
C116  H118  1.078 .      S
C117  H119  1.081 .      S
C118  C121  1.467 .      S
C119  H120  1.075 .      S
C121  O22   1.346 .      S
O22   H121  0.965 .      S
C122  C123  1.519 .      S
C122  H122  1.100 .      S
C122  H123  1.109 .      S
C122  H124  1.109 1_556  S
C123  C124  1.514 .      S
C123  C125  1.522 .      S
C123  H125  1.097 .      S
C124  H126  1.094 .      S
C124  H127  1.109 1_556  S
C124  H128  1.105 1_556  S
C127  H129  1.068 .      S
C128  H130  1.081 .      S
C129  C132  1.468 .      S
C130  H131  1.079 .      S
C132  O24   1.345 1_556  S
O24   C132  1.345 1_554  S
O24   H132  0.966 .      S
H124  C122  1.109 1_554  S
H127  C124  1.109 1_554  S
H128  C124  1.105 1_554  S
C133  C134  1.509 .      S
C133  H133  1.107 .      S
C133  H134  1.109 1_556  S
C133  H135  1.107 .      S
C134  C135  1.518 .      S
C134  C136  1.494 .      S
C134  H136  1.108 1_556  S
C135  H137  1.107 .      S
C135  H138  1.109 1_556  S
C135  H139  1.107 .      S
C138  H140  1.043 .      S
C139  H141  1.073 .      S
C140  C143  1.418 .      S
C141  H142  1.041 .      S
C143  O26   1.341 .      S
O26   H143  0.954 .      S
H134  C133  1.109 1_554  S
H136  C134  1.108 1_554  S
H138  C135  1.109 1_554  S
C144  C145  1.519 .      S
C144  H144  1.109 .      S
C144  H145  1.109 .      S
C144  H146  1.105 .      S
C145  C146  1.516 .      S
C145  C147  1.493 .      S
C145  H147  1.098 .      S
C146  H148  1.097 .      S
C146  H149  1.109 .      S
C146  H150  1.104 .      S
N27   Zn9   2.292 1_554  S
C149  H151  1.062 .      S
C150  H152  1.081 .      S
C151  C154  1.467 .      S
C152  H153  1.064 .      S
C154  O28   1.344 .      S
O28   H154  0.965 .      S
C155  C156  1.487 .      S
C155  H155  1.102 .      S
C155  H156  1.107 .      S
C155  H157  1.102 .      S
C156  C157  1.519 .      S
C156  C158  1.497 .      S
C156  H158  1.091 .      S
C157  H159  1.109 .      S
C157  H160  1.109 .      S
C157  H161  1.104 .      S
C160  H162  1.069 .      S
C161  H163  1.080 .      S
C162  C165  1.468 .      S
C163  H164  1.050 .      S
C165  O30   1.344 .      S
O30   H165  0.966 .      S
C166  C167  1.512 .      S
C166  H166  1.100 1_545  S
C166  H167  1.105 .      S
C166  H168  1.101 .      S
C167  C168  1.523 1_545  S
C167  C169  1.414 .      S
C167  H169  1.088 .      S
C168  C167  1.523 1_565  S
C168  H170  1.093 .      S
C168  H171  1.095 .      S
C168  H172  1.085 .      S
N31   Zn10  2.242 1_545  S
C171  H173  1.077 .      S
C172  H174  1.081 .      S
C173  C176  1.462 1_556  S
C174  H175  1.076 .      S
C176  C173  1.462 1_554  S
C176  O32   1.341 .      S
O32   H176  0.966 .      S
H166  C166  1.100 1_565  S
C177  C178  1.529 .      S
C177  H177  1.108 .      S
C177  H178  1.097 .      S
C177  H179  1.103 .      S
C178  C179  1.507 .      S
C178  C180  1.522 .      S
C178  H180  1.092 .      S
C179  H181  1.095 .      S
C179  H182  1.109 .      S
C179  H183  1.109 .      S
C182  H184  1.066 .      S
C183  H185  1.080 .      S
C184  C187  1.468 1_556  S
C185  H186  1.077 .      S
C187  C184  1.468 1_554  S
C187  O34   1.346 .      S
O34   H187  0.965 .      S
C188  C189  1.439 .      S
C188  H188  1.096 .      S
C188  H189  1.070 .      S
C188  H190  1.094 .      S
C189  C190  1.509 .      S
C189  C191  1.459 .      S
C189  H191  1.098 .      S
C190  H192  1.090 .      S
C190  H193  1.090 .      S
C190  H194  1.080 .      S
C193  H195  1.077 .      S
C194  H196  1.081 .      S
C195  C198  1.469 .      S
C196  H197  1.072 .      S
C198  O36   1.343 .      S
O36   H198  0.966 .      S
C199  C200  1.526 .      S
C199  H199  1.107 .      S
C199  H200  1.109 .      S
C199  H201  1.108 .      S
C200  C201  1.508 .      S
C200  C202  1.532 .      S
C200  H202  1.088 .      S
C201  H203  1.088 .      S
C201  H204  1.109 .      S
C201  H205  1.109 .      S
C204  H206  1.077 .      S
C205  H207  1.081 .      S
C206  C209  1.469 .      S
C207  H208  1.069 .      S
C209  O38   1.344 .      S
O38   H209  0.966 .      S
C210  C211  1.465 .      S
C210  H210  1.082 .      S
C210  H211  1.103 .      S
C210  H212  1.097 .      S
C211  C212  1.523 .      S
C211  C213  1.513 .      S
C211  H213  1.085 .      S
C212  H214  1.105 .      S
C212  H215  1.109 .      S
C212  H216  1.098 .      S
C215  H217  1.062 .      S
C216  H218  1.080 .      S
C217  C220  1.465 .      S
C218  H219  1.069 .      S
C220  O40   1.340 .      S
O40   H220  0.966 .      S
C221  C222  1.520 .      S
C221  H221  1.107 .      S
C221  H222  1.109 .      S
C221  H223  1.104 .      S
C222  C223  1.502 .      S
C222  C224  1.421 .      S
C222  H224  1.071 .      S
C223  H225  1.089 .      S
C223  H226  1.101 .      S
C223  H227  1.101 .      S
C226  H228  1.081 .      S
C227  H229  1.081 .      S
C228  C231  1.470 .      S
C229  H230  1.076 .      S
C231  O42   1.346 .      S
O42   H231  0.966 1_565  S
H231  O42   0.966 1_545  S
C232  C233  1.493 .      S
C232  H232  1.094 .      S
C232  H233  1.095 .      S
C232  H234  1.102 .      S
C233  C234  1.481 .      S
C233  C235  1.449 .      S
C233  H235  1.093 .      S
C234  H236  1.082 .      S
C234  H237  1.079 .      S
C234  H238  1.101 .      S
C237  H239  1.071 .      S
C238  H240  1.073 .      S
C239  C242  1.470 .      S
C240  H241  1.049 .      S
C242  O44   1.346 .      S
O44   H242  0.966 .      S
C243  C244  1.510 .      S
C243  H243  1.095 .      S
C243  H244  1.108 .      S
C243  H245  1.109 .      S
C244  C245  1.496 .      S
C244  C246  1.467 .      S
C244  H246  1.093 .      S
C245  H247  1.069 .      S
C245  H248  1.089 .      S
C245  H249  1.108 .      S
C248  H250  1.067 .      S
C249  H251  1.081 .      S
C250  C253  1.467 .      S
C251  H252  1.066 .      S
C253  O46   1.344 .      S
O46   H253  0.966 .      S
C254  C255  1.529 .      S
C254  H254  1.102 .      S
C254  H255  1.107 .      S
C254  H256  1.104 .      S
C255  C256  1.508 .      S
C255  C257  1.504 .      S
C255  H257  1.103 .      S
C256  H258  1.083 .      S
C256  H259  1.092 .      S
C256  H260  1.103 .      S
C259  H261  1.074 .      S
C260  H262  1.081 .      S
C261  C264  1.459 .      S
C262  H263  1.080 .      S
C264  O48   1.339 .      S
O48   H264  0.962 .      S
C265  C266  1.513 .      S
C265  H265  1.104 .      S
C265  H266  1.106 .      S
C265  H267  1.106 .      S
C266  C267  1.498 .      S
C266  C268  1.499 .      S
C266  H268  1.056 .      S
C267  H269  1.106 .      S
C267  H270  1.109 .      S
C267  H271  1.096 .      S
C270  H272  1.061 .      S
C271  H273  1.075 .      S
C272  C275  1.464 .      S
C273  H274  1.064 .      S
C275  O50   1.346 .      S
O50   H275  0.966 .      S
C276  C277  1.519 .      S
C276  H276  1.102 .      S
C276  H277  1.108 .      S
C276  H278  1.100 .      S
C277  C278  1.476 .      S
C277  C279  1.456 .      S
C277  H279  1.092 .      S
C278  H280  1.101 .      S
C278  H281  1.080 .      S
C278  H282  1.034 .      S
C281  H283  1.073 .      S
C282  H284  1.081 .      S
C283  C286  1.469 .      S
C284  H285  1.073 .      S
C286  O52   1.346 .      S
O52   H286  0.966 .      S
C287  C288  1.515 .      S
C287  H287  1.109 .      S
C287  H288  1.109 .      S
C287  H289  1.093 .      S
C288  C289  1.489 .      S
C288  C290  1.485 .      S
C288  H290  1.085 .      S
C289  H291  1.097 .      S
C289  H292  1.095 .      S
C289  H293  1.105 .      S
C292  H294  1.077 .      S
C293  H295  1.081 .      S
C294  C297  1.471 1_655  S
C295  H296  1.059 .      S
C297  C294  1.471 1_455  S
C297  O54   1.345 .      S
O54   H297  0.966 .      S
C298  C299  1.477 .      S
C298  H298  1.096 1_655  S
C298  H299  1.109 .      S
C298  H300  1.098 .      S
C299  C300  1.509 .      S
C299  C301  1.473 .      S
C299  H301  1.094 .      S
C300  H302  1.098 1_655  S
C300  H303  1.090 .      S
C300  H304  1.108 1_655  S
C303  H305  1.063 .      S
C304  H306  1.081 .      S
C305  C308  1.465 .      S
C306  H307  1.070 .      S
C308  O56   1.346 .      S
O56   H308  0.966 .      S
H298  C298  1.096 1_455  S
H302  C300  1.098 1_455  S
H304  C300  1.108 1_455  S
C309  C310  1.479 .      S
C309  H309  1.092 .      S
C309  H310  1.105 .      S
C309  H311  1.097 .      S
C310  C311  1.520 .      S
C310  C312  1.483 .      S
C310  H312  1.090 .      S
C311  H313  1.106 .      S
C311  H314  1.107 .      S
C311  H315  1.107 .      S
N57   Zn14  2.272 1_455  S
C314  H316  1.053 .      S
C315  H317  1.078 1_455  S
C316  C319  1.465 .      S
C317  H318  1.074 .      S
C319  O58   1.347 .      S
O58   H319  0.965 .      S
H317  C315  1.078 1_655  S
C320  C321  1.492 .      S
C320  H320  1.101 .      S
C320  H321  1.098 .      S
C320  H322  1.070 .      S
C321  C322  1.504 .      S
C321  C323  1.448 .      S
C321  H323  1.089 .      S
C322  H324  1.089 .      S
C322  H325  1.096 .      S
C322  H326  1.077 .      S
C325  H327  1.081 .      S
C326  H328  1.081 .      S
C327  C330  1.463 .      S
C328  H329  1.073 .      S
C330  O60   1.343 .      S
O60   H330  0.966 .      S
C331  C332  1.522 .      S
C331  H331  1.103 .      S
C331  H332  1.109 .      S
C331  H333  1.108 .      S
C332  C333  1.503 .      S
C332  C334  1.516 .      S
C332  H334  1.105 .      S
C333  H335  1.093 .      S
C333  H336  1.107 .      S
C333  H337  1.105 .      S
C336  H338  1.076 .      S
C337  H339  1.081 1_556  S
C338  C341  1.463 1_556  S
C339  H340  1.049 .      S
C341  C338  1.463 1_554  S
C341  O62   1.342 .      S
O62   H341  0.964 .      S
H339  C337  1.081 1_554  S
C342  C343  1.464 .      S
C342  H342  1.069 1_455  S
C342  H343  1.093 .      S
C342  H344  1.092 .      S
C343  C344  1.508 .      S
C343  C345  1.435 .      S
C343  H345  1.087 .      S
C344  H346  1.109 1_565  S
C344  H347  1.107 .      S
C344  H348  1.098 1_455  S
N63   Zn16  2.275 1_455  S
C347  H349  1.075 1_455  S
C348  H350  1.081 1_556  S
C349  C352  1.469 1_566  S
C350  H351  1.078 1_565  S
C352  C349  1.469 1_544  S
C352  O64   1.346 .      S
O64   H352  0.966 .      S
H342  C342  1.069 1_655  S
H346  C344  1.109 1_545  S
H348  C344  1.098 1_655  S
H349  C347  1.075 1_655  S
H350  C348  1.081 1_554  S
H351  C350  1.078 1_545  S
C4    N1    1.381 .      A
C4    N2    1.371 .      A
N1    C5    1.348 .      A
C5    C6    1.362 .      A
C5    C10   1.366 .      A
C6    C7    1.383 .      A
C7    C8    1.391 .      A
C8    C9    1.385 .      A
C9    C10   1.371 .      A
C10   N2    1.345 .      A
C15   N3    1.393 .      A
C15   N4    1.378 .      A
N3    C16   1.355 .      A
C16   C17   1.362 .      A
C16   C21   1.369 .      A
C17   C18   1.380 .      A
C18   C19   1.389 .      A
C19   C20   1.386 .      A
C20   C21   1.376 .      A
C21   N4    1.344 .      A
C26   N5    1.392 .      A
C26   N6    1.396 .      A
N5    C27   1.356 .      A
C27   C28   1.373 .      A
C27   C32   1.381 .      A
C28   C29   1.387 .      A
C29   C30   1.395 .      A
C30   C31   1.388 .      A
C31   C32   1.371 .      A
C32   N6    1.351 .      A
C37   N7    1.376 .      A
C37   N8    1.374 .      A
N7    C38   1.339 .      A
C38   C39   1.359 .      A
C38   C43   1.361 .      A
C39   C40   1.379 .      A
C40   C41   1.387 .      A
C41   C42   1.401 .      A
C42   C43   1.386 .      A
C43   N8    1.358 .      A
C48   N9    1.401 .      A
C48   N10   1.387 .      A
N9    C49   1.350 .      A
C49   C50   1.371 .      A
C49   C54   1.380 .      A
C50   C51   1.385 .      A
C51   C52   1.397 .      A
C52   C53   1.390 .      A
C53   C54   1.373 .      A
C54   N10   1.354 .      A
C59   N11   1.372 .      A
C59   N12   1.382 .      A
N11   C60   1.340 .      A
C60   C61   1.373 .      A
C60   C65   1.350 .      A
C61   C62   1.385 .      A
C62   C63   1.394 .      A
C63   C64   1.387 .      A
C64   C65   1.378 .      A
C65   N12   1.349 .      A
C70   N13   1.392 .      A
C70   N14   1.399 .      A
N13   C71   1.366 1_565  A
C71   N13   1.366 1_545  A
C71   C72   1.370 .      A
C71   C76   1.362 1_545  A
C72   C73   1.380 .      A
C73   C74   1.378 .      A
C74   C75   1.378 .      A
C75   C76   1.376 1_545  A
C76   C71   1.362 1_565  A
C76   C75   1.376 1_565  A
C76   N14   1.338 .      A
C81   N15   1.394 .      A
C81   N16   1.408 .      A
N15   C82   1.357 .      A
C82   C83   1.371 .      A
C82   C87   1.356 .      A
C83   C84   1.367 .      A
C84   C85   1.371 .      A
C85   C86   1.392 .      A
C86   C87   1.376 .      A
C87   N16   1.348 .      A
C92   N17   1.390 .      A
C92   N18   1.404 .      A
N17   C93   1.348 .      A
C93   C94   1.374 .      A
C93   C98   1.371 .      A
C94   C95   1.386 .      A
C95   C96   1.396 .      A
C96   C97   1.389 .      A
C97   C98   1.374 .      A
C98   N18   1.350 .      A
C103  N19   1.411 .      A
C103  N20   1.396 .      A
N19   C104  1.351 .      A
C104  C105  1.369 .      A
C104  C109  1.373 .      A
C105  C106  1.384 .      A
C106  C107  1.396 .      A
C107  C108  1.387 .      A
C108  C109  1.370 .      A
C109  N20   1.345 .      A
C114  N21   1.388 .      A
C114  N22   1.394 .      A
N21   C115  1.357 .      A
C115  C116  1.381 .      A
C115  C120  1.391 .      A
C116  C117  1.381 1_556  A
C117  C116  1.381 1_554  A
C117  C118  1.385 .      A
C118  C119  1.383 .      A
C119  C120  1.374 1_554  A
C120  C119  1.374 1_556  A
C120  N22   1.350 .      A
C125  N23   1.407 .      A
C125  N24   1.402 .      A
N23   C126  1.348 .      A
C126  C127  1.367 .      A
C126  C131  1.366 .      A
C127  C128  1.381 .      A
C128  C129  1.390 .      A
C129  C130  1.392 .      A
C130  C131  1.378 .      A
C131  N24   1.352 .      A
C136  N25   1.411 .      A
C136  N26   1.405 .      A
N25   C137  1.332 .      A
C137  C138  1.367 .      A
C137  C142  1.349 .      A
C138  C139  1.324 .      A
C139  C140  1.345 .      A
C140  C141  1.384 .      A
C141  C142  1.347 .      A
C142  N26   1.345 .      A
C147  N27   1.421 .      A
C147  N28   1.422 .      A
N27   C148  1.349 .      A
C148  C149  1.364 .      A
C148  C153  1.367 .      A
C149  C150  1.375 .      A
C150  C151  1.382 .      A
C151  C152  1.387 .      A
C152  C153  1.371 .      A
C153  N28   1.351 .      A
C158  N29   1.391 .      A
C158  N30   1.416 .      A
N29   C159  1.342 .      A
C159  C160  1.363 .      A
C159  C164  1.370 .      A
C160  C161  1.376 .      A
C161  C162  1.381 1_556  A
C162  C161  1.381 1_554  A
C162  C163  1.389 .      A
C163  C164  1.375 1_554  A
C164  C163  1.375 1_556  A
C164  N30   1.362 .      A
C169  N31   1.386 .      A
C169  N32   1.400 .      A
N31   C170  1.343 .      A
C170  C171  1.369 1_556  A
C170  C175  1.389 .      A
C171  C170  1.369 1_554  A
C171  C172  1.370 .      A
C172  C173  1.384 1_554  A
C173  C172  1.384 1_556  A
C173  C174  1.397 .      A
C174  C175  1.384 .      A
C175  N32   1.373 .      A
C180  N33   1.388 1_545  A
C180  N34   1.394 1_545  A
N33   C180  1.388 1_565  A
N33   C181  1.346 .      A
C181  C182  1.374 .      A
C181  C186  1.356 .      A
C182  C183  1.380 .      A
C183  C184  1.386 .      A
C184  C185  1.388 .      A
C185  C186  1.372 .      A
C186  N34   1.348 .      A
N34   C180  1.394 1_565  A
C191  N35   1.391 .      A
C191  N36   1.376 .      A
N35   C192  1.342 .      A
C192  C193  1.372 .      A
C192  C197  1.374 .      A
C193  C194  1.374 1_565  A
C194  C193  1.374 1_545  A
C194  C195  1.387 .      A
C195  C196  1.395 1_545  A
C196  C195  1.395 1_565  A
C196  C197  1.383 .      A
C197  N36   1.368 .      A
C202  N37   1.392 .      A
C202  N38   1.401 .      A
N37   C203  1.338 .      A
C203  C204  1.371 .      A
C203  C208  1.367 .      A
C204  C205  1.379 1_565  A
C205  C204  1.379 1_545  A
C205  C206  1.390 .      A
C206  C207  1.394 .      A
C207  C208  1.379 1_545  A
C208  C207  1.379 1_565  A
C208  N38   1.359 .      A
C213  N39   1.375 .      A
C213  N40   1.398 .      A
N39   C214  1.347 .      A
C214  C215  1.347 .      A
C214  C219  1.344 .      A
C215  C216  1.378 .      A
C216  C217  1.380 .      A
C217  C218  1.390 .      A
C218  C219  1.377 .      A
C219  N40   1.339 .      A
C224  N41   1.393 .      A
C224  N42   1.396 .      A
N41   C225  1.355 .      A
C225  C226  1.369 .      A
C225  C230  1.385 .      A
C226  C227  1.385 .      A
C227  C228  1.398 .      A
C228  C229  1.387 .      A
C229  C230  1.368 .      A
C230  N42   1.348 .      A
C235  N43   1.379 .      A
C235  N44   1.376 .      A
N43   C236  1.338 .      A
C236  C237  1.370 .      A
C236  C241  1.359 .      A
C237  C238  1.377 .      A
C238  C239  1.382 .      A
C239  C240  1.386 .      A
C240  C241  1.372 .      A
C241  N44   1.359 .      A
C246  N45   1.404 .      A
C246  N46   1.388 .      A
N45   C247  1.345 .      A
C247  C248  1.368 .      A
C247  C252  1.375 .      A
C248  C249  1.376 .      A
C249  C250  1.387 .      A
C250  C251  1.394 .      A
C251  C252  1.378 .      A
C252  N46   1.363 .      A
C257  N47   1.411 .      A
C257  N48   1.380 .      A
N47   C258  1.343 .      A
C258  C259  1.368 .      A
C258  C263  1.374 .      A
C259  C260  1.373 .      A
C260  C261  1.388 .      A
C261  C262  1.396 .      A
C262  C263  1.378 .      A
C263  N48   1.358 .      A
C268  N49   1.408 .      A
C268  N50   1.424 .      A
N49   C269  1.352 .      A
C269  C270  1.366 .      A
C269  C274  1.383 .      A
C270  C271  1.370 .      A
C271  C272  1.373 .      A
C272  C273  1.389 .      A
C273  C274  1.375 .      A
C274  N50   1.351 .      A
C279  N51   1.385 .      A
C279  N52   1.377 .      A
N51   C280  1.343 .      A
C280  C281  1.366 .      A
C280  C285  1.373 .      A
C281  C282  1.382 .      A
C282  C283  1.393 .      A
C283  C284  1.390 .      A
C284  C285  1.380 .      A
C285  N52   1.361 .      A
C290  N53   1.421 .      A
C290  N54   1.396 .      A
N53   C291  1.335 .      A
C291  C292  1.369 .      A
C291  C296  1.376 .      A
C292  C293  1.375 .      A
C293  C294  1.387 .      A
C294  C295  1.394 .      A
C295  C296  1.378 .      A
C296  N54   1.372 .      A
C301  N55   1.400 .      A
C301  N56   1.370 .      A
N55   C302  1.346 .      A
C302  C303  1.368 .      A
C302  C307  1.353 .      A
C303  C304  1.379 .      A
C304  C305  1.387 .      A
C305  C306  1.383 .      A
C306  C307  1.375 .      A
C307  N56   1.352 .      A
C312  N57   1.409 .      A
C312  N58   1.397 .      A
N57   C313  1.371 .      A
C313  C314  1.373 1_455  A
C313  C318  1.370 .      A
C314  C313  1.373 1_655  A
C314  C315  1.384 1_655  A
C315  C314  1.384 1_455  A
C315  C316  1.385 .      A
C316  C317  1.379 .      A
C317  C318  1.369 .      A
C318  N58   1.333 .      A
C323  N59   1.392 .      A
C323  N60   1.387 .      A
N59   C324  1.350 .      A
C324  C325  1.374 .      A
C324  C329  1.380 .      A
C325  C326  1.376 .      A
C326  C327  1.390 .      A
C327  C328  1.392 .      A
C328  C329  1.373 .      A
C329  N60   1.357 .      A
C334  N61   1.409 .      A
C334  N62   1.399 .      A
N61   C335  1.331 .      A
C335  C336  1.372 .      A
C335  C340  1.367 .      A
C336  C337  1.373 .      A
C337  C338  1.384 .      A
C338  C339  1.392 .      A
C339  C340  1.369 .      A
C340  N62   1.365 .      A
C345  N63   1.406 .      A
C345  N64   1.382 .      A
N63   C346  1.353 .      A
C346  C347  1.369 .      A
C346  C351  1.387 .      A
C347  C348  1.384 .      A
C348  C349  1.394 .      A
C349  C350  1.390 .      A
C350  C351  1.375 .      A
C351  N64   1.354 .      A
C11   O1    1.218 .      D
C22   O3    1.219 .      D
C33   O5    1.219 .      D
C44   O7    1.219 .      D
C55   O9    1.219 .      D
C66   O11   1.219 .      D
C77   O13   1.219 .      D
C88   O15   1.216 .      D
C99   O17   1.219 .      D
C110  O19   1.219 .      D
C121  O21   1.219 .      D
C132  O23   1.219 .      D
C143  O25   1.200 .      D
C154  O27   1.219 .      D
C165  O29   1.219 .      D
C176  O31   1.219 .      D
C187  O33   1.219 .      D
C198  O35   1.219 .      D
C209  O37   1.219 .      D
C220  O39   1.219 .      D
C231  O41   1.219 .      D
C242  O43   1.218 .      D
C253  O45   1.219 .      D
C264  O47   1.219 .      D
C275  O49   1.216 .      D
C286  O51   1.219 .      D
C297  O53   1.219 .      D
C308  O55   1.218 .      D
C319  O57   1.219 .      D
C330  O59   1.218 .      D
C341  O61   1.219 .      D
C352  O63   1.219 .      D
